Circuit: * C:\users\raghuttam\My Documents\LTspiceXVII\basic-electronic-circuits\Active_Filters.asc

R6: both pins shorted together -- ignoring.
Direct Newton iteration for .op point succeeded.

Date: Mon Jul 12 10:29:56 2021
Total elapsed time: 0.066 seconds.

tnom = 27
temp = 27
method = trap
totiter = 11
traniter = 0
tranpoints = 0
accept = 0
rejected = 0
matrix size = 71
fillins = 83
solver = Normal
Matrix Compiler1:     410 opcodes
Matrix Compiler2: 7.35 KB object code size
