Circuit: * C:\users\raghuttam\Documents\LTspiceXVII\basic-electronic-circuits\Astable_Multipvibrator.asc

Direct Newton iteration for .op point succeeded.

Date: Thu Aug 26 10:02:51 2021
Total elapsed time: 0.331 seconds.

tnom = 27
temp = 27
method = modified trap
totiter = 2958
traniter = 2947
tranpoints = 1256
accept = 1173
rejected = 83
matrix size = 37
fillins = 44
solver = Normal
Matrix Compiler1: 3.99 KB object code size  4.3/2.9/[1.7]
Matrix Compiler2: 3.79 KB object code size  2.0/2.7/[2.1]

