Circuit: * C:\users\raghuttam\My Documents\LTspiceXVII\basic-electronic-circuits\Astable_Multipvibrator.asc

Direct Newton iteration for .op point succeeded.

Date: Mon Jul 12 10:37:56 2021
Total elapsed time: 0.082 seconds.

tnom = 27
temp = 27
method = modified trap
totiter = 2958
traniter = 2947
tranpoints = 1256
accept = 1173
rejected = 83
matrix size = 37
fillins = 44
solver = Normal
Matrix Compiler1: 3.99 KB object code size  0.8/0.4/[0.2]
Matrix Compiler2: 3.79 KB object code size  0.3/0.5/[0.3]

