Circuit: * C:\users\raghuttam\Documents\LTspiceXVII\basic-electronic-circuits\bicmos_inverter.asc

WARNING: Node N002 is floating.
WARNING: Node N006 is floating.

Direct Newton iteration failed to find .op point.  (Use ".option noopiter" to skip.)
Starting Gmin stepping
Gmin = 10
Gmin = 1.07374
Gmin = 0.115292
Gmin = 0.0123794
Gmin = 0.00132923
Gmin = 0.000142725
Gmin = 1.5325e-005
Gmin = 1.6455e-006
Gmin = 1.76685e-007
Gmin = 1.89714e-008
Gmin = 2.03704e-009
Gmin = 2.18725e-010
Gmin = 2.34854e-011
Gmin = 2.52173e-012
Gmin = 2.70769e-013
Gmin = 0
Gmin stepping succeeded in finding the operating point.


Date: Thu Aug 26 10:03:50 2021
Total elapsed time: 0.801 seconds.

tnom = 27
temp = 27
method = modified trap
totiter = 3421
traniter = 3038
tranpoints = 1450
accept = 1407
rejected = 43
matrix size = 9
fillins = 0
solver = Normal
Matrix Compiler1: 600 bytes object code size  0.6/0.5/[0.4]
Matrix Compiler2: 859 bytes object code size  0.6/0.7/[0.5]

