Circuit: * C:\users\raghuttam\Documents\LTspiceXVII\basic-electronic-circuits\Boost_converter.asc

Direct Newton iteration for .op point succeeded.

Date: Mon Aug 02 16:29:14 2021
Total elapsed time: 0.474 seconds.

tnom = 27
temp = 27
method = modified trap
totiter = 129491
traniter = 129480
tranpoints = 54765
accept = 43144
rejected = 11621
matrix size = 11
fillins = 1
solver = Normal
Matrix Compiler1: 494 bytes object code size  0.2/0.1/[0.1]
Matrix Compiler2: off  [0.1]/0.2/0.1

