Circuit: * C:\users\raghuttam\Documents\LTspiceXVII\basic-electronic-circuits\Buck_converter.asc

Direct Newton iteration for .op point succeeded.

Date: Mon Aug 02 16:24:54 2021
Total elapsed time: 0.706 seconds.

tnom = 27
temp = 27
method = modified trap
totiter = 205828
traniter = 205822
tranpoints = 63235
accept = 50365
rejected = 12870
matrix size = 11
fillins = 0
solver = Normal
Matrix Compiler1: 512 bytes object code size  0.2/0.2/[0.1]
Matrix Compiler2: 807 bytes object code size  0.1/0.2/[0.1]

