Circuit: * C:\users\raghuttam\Documents\LTspiceXVII\basic-electronic-circuits\Buck_converter.asc

Direct Newton iteration for .op point succeeded.

Date: Thu Aug 26 10:05:45 2021
Total elapsed time: 0.692 seconds.

tnom = 27
temp = 27
method = modified trap
totiter = 3955
traniter = 3940
tranpoints = 1953
accept = 1791
rejected = 162
matrix size = 6
fillins = 0
solver = Normal
Matrix Compiler1: 218 bytes object code size  0.2/0.2/[0.2]
Matrix Compiler2: 396 bytes object code size  0.2/0.2/[0.2]

