Circuit: * C:\users\raghuttam\My Documents\LTspiceXVII\basic-electronic-circuits\Capacitor.asc

.OP point found by inspection.

Date: Thu Jul 15 22:08:39 2021
Total elapsed time: 0.045 seconds.

tnom = 27
temp = 27
method = modified trap
totiter = 2344
traniter = 2344
tranpoints = 1173
accept = 1143
rejected = 30
matrix size = 3
fillins = 0
solver = Normal
Matrix Compiler1: 50 bytes object code size  0.0/0.0/[0.0]
Matrix Compiler2: 175 bytes object code size  0.0/0.0/[0.0]

