Circuit: * C:\users\raghuttam\Documents\LTspiceXVII\basic-electronic-circuits\Capacitor.asc

.OP point found by inspection.

Date: Thu Aug 26 10:06:43 2021
Total elapsed time: 0.221 seconds.

tnom = 27
temp = 27
method = modified trap
totiter = 2344
traniter = 2344
tranpoints = 1173
accept = 1143
rejected = 30
matrix size = 3
fillins = 0
solver = Normal
Matrix Compiler1: 50 bytes object code size  0.4/0.4/[0.4]
Matrix Compiler2: 175 bytes object code size  0.5/0.5/[0.4]

