Circuit: * C:\users\raghuttam\My Documents\LTspiceXVII\basic-electronic-circuits\cmos_buffer.asc

WARNING: Node N007 is floating.
WARNING: Node N008 is floating.
WARNING: Node N002 is floating.
WARNING: Node N003 is floating.

Direct Newton iteration for .op point succeeded.

Date: Fri Jul 23 11:29:35 2021
Total elapsed time: 0.095 seconds.

tnom = 27
temp = 27
method = modified trap
totiter = 3115
traniter = 3072
tranpoints = 1289
accept = 1250
rejected = 39
matrix size = 10
fillins = 0
solver = Normal
Matrix Compiler1: 632 bytes object code size  0.2/0.1/[0.1]
Matrix Compiler2: off  [0.1]/0.2/0.1

