Circuit: * C:\users\raghuttam\Documents\LTspiceXVII\basic-electronic-circuits\CMOS_Gates.asc

Direct Newton iteration for .op point succeeded.
Changing Tseed to 1e-010
Changing Tseed to 1e-012
Changing Tseed to 1e-009
Changing Tseed to 1e-013
Heightened Def Con from 2 to 2
Heightened Def Con from 2 to 2
Heightened Def Con from 2 to 2
Heightened Def Con from 2 to 2
Heightened Def Con from 2 to 2

Date: Wed Aug 11 11:46:49 2021
Total elapsed time: 0.224 seconds.

tnom = 27
temp = 27
method = modified trap
totiter = 5386
traniter = 5375
tranpoints = 1658
accept = 1554
rejected = 105
matrix size = 10
fillins = 0
solver = Normal
Matrix Compiler1: 454 bytes object code size  0.2/0.1/[0.1]
Matrix Compiler2: 922 bytes object code size  0.2/0.2/[0.1]

