Circuit: * C:\users\raghuttam\Documents\LTspiceXVII\basic-electronic-circuits\cmos_mux2x1.asc

WARNING: Less than two connections to node A0I.  This node is used by V5.
WARNING: Less than two connections to node A1I.  This node is used by V6.
Direct Newton iteration for .op point succeeded.
Changing Tseed to 1e-010
Changing Tseed to 1e-012
Changing Tseed to 1e-009
Changing Tseed to 1e-013

Date: Sat Aug 28 18:44:38 2021
Total elapsed time: 0.140 seconds.

tnom = 27
temp = 27
method = modified trap
totiter = 5524
traniter = 5495
tranpoints = 1475
accept = 1424
rejected = 47
matrix size = 20
fillins = 2
solver = Normal
Matrix Compiler1: 1.21 KB object code size  0.4/0.2/[0.2]
Matrix Compiler2: 2.07 KB object code size  0.3/0.3/[0.3]

