Circuit: * C:\users\raghuttam\Documents\LTspiceXVII\basic-electronic-circuits\CMOS_NAND.asc

WARNING: Less than two connections to node VBI.  This node is used by V§B1.
Direct Newton iteration for .op point succeeded.
Changing Tseed to 1e-010
Changing Tseed to 1e-012
Changing Tseed to 1e-009
Changing Tseed to 1e-013
Heightened Def Con from 2 to 2
Heightened Def Con from 2 to 2
Heightened Def Con from 2 to 2
Heightened Def Con from 2 to 2

Date: Wed Aug 11 11:40:17 2021
Total elapsed time: 0.131 seconds.

tnom = 27
temp = 27
method = modified trap
totiter = 5353
traniter = 5346
tranpoints = 1665
accept = 1563
rejected = 102
matrix size = 13
fillins = 0
solver = Normal
Matrix Compiler1: 550 bytes object code size  0.2/0.1/[0.1]
Matrix Compiler2: 991 bytes object code size  0.2/0.2/[0.1]

