Circuit: * C:\users\raghuttam\Documents\LTspiceXVII\basic-electronic-circuits\cmos_buffer.asc

WARNING: Node N007 is floating.
WARNING: Node N008 is floating.
WARNING: Node N002 is floating.
WARNING: Node N003 is floating.

Direct Newton iteration for .op point succeeded.

Date: Thu Aug 26 10:07:10 2021
Total elapsed time: 0.545 seconds.

tnom = 27
temp = 27
method = modified trap
totiter = 3115
traniter = 3072
tranpoints = 1289
accept = 1250
rejected = 39
matrix size = 10
fillins = 0
solver = Normal
Matrix Compiler1: 632 bytes object code size  1.0/0.7/[0.6]
Matrix Compiler2: 938 bytes object code size  1.6/1.4/[0.9]

