Circuit: * C:\users\raghuttam\Documents\LTspiceXVII\basic-electronic-circuits\CMOS_NAND.asc

Direct Newton iteration for .op point succeeded.
Changing Tseed to 1e-010
Changing Tseed to 1e-012
Changing Tseed to 1e-009
Changing Tseed to 1e-013
Heightened Def Con from 2 to 2
Heightened Def Con from 2 to 2
Heightened Def Con from 2 to 2
Heightened Def Con from 2 to 2

Date: Fri Aug 06 12:43:17 2021
Total elapsed time: 0.167 seconds.

tnom = 27
temp = 27
method = modified trap
totiter = 4919
traniter = 4914
tranpoints = 1582
accept = 1501
rejected = 81
matrix size = 9
fillins = 0
solver = Normal
Matrix Compiler1: 440 bytes object code size  0.2/0.2/[0.1]
Matrix Compiler2: 753 bytes object code size  0.2/0.3/[0.2]

