Circuit: * C:\users\raghuttam\Documents\LTspiceXVII\basic-electronic-circuits\Diode.asc


Date: Thu Aug 26 10:09:10 2021
Total elapsed time: 0.230 seconds.

tnom = 27
temp = 27
method = trap
totiter = 412
traniter = 0
tranpoints = 0
accept = 0
rejected = 0
matrix size = 4
fillins = 0
solver = Normal
Matrix Compiler1: 118 bytes object code size  0.5/0.4/[0.4]
Matrix Compiler2: 242 bytes object code size  0.5/0.5/[0.4]

