Circuit: * C:\users\raghuttam\Documents\LTspiceXVII\basic-electronic-circuits\Diode_Clippers.asc

Direct Newton iteration for .op point succeeded.

Date: Thu Aug 26 10:08:28 2021
Total elapsed time: 0.326 seconds.

tnom = 27
temp = 27
method = modified trap
totiter = 2194
traniter = 2187
tranpoints = 1048
accept = 1048
rejected = 0
matrix size = 5
fillins = 0
solver = Normal
Matrix Compiler1: 114 bytes object code size  0.7/0.7/[0.6]
Matrix Compiler2: 301 bytes object code size  2.9/0.8/[0.6]

