Circuit: * C:\users\raghuttam\My Documents\LTspiceXVII\basic-electronic-circuits\Diode_Clamping.asc

.OP point found by inspection.

Date: Mon Jul 12 10:27:18 2021
Total elapsed time: 0.092 seconds.

tnom = 27
temp = 27
method = modified trap
totiter = 2274
traniter = 2274
tranpoints = 1069
accept = 1069
rejected = 0
matrix size = 4
fillins = 0
solver = Normal
Matrix Compiler1: 136 bytes object code size  0.1/0.1/[0.1]
Matrix Compiler2:      21 opcodes  0.1/[0.1]/0.1

