Circuit: * C:\users\raghuttam\Documents\LTspiceXVII\basic-electronic-circuits\Diode_Clamping.asc

.OP point found by inspection.

Date: Thu Aug 26 10:07:47 2021
Total elapsed time: 0.364 seconds.

tnom = 27
temp = 27
method = modified trap
totiter = 2274
traniter = 2274
tranpoints = 1069
accept = 1069
rejected = 0
matrix size = 4
fillins = 0
solver = Normal
Matrix Compiler1: 136 bytes object code size  0.8/0.7/[0.5]
Matrix Compiler2: 236 bytes object code size  0.9/0.7/[0.5]

