Circuit: * C:\users\raghuttam\My Documents\LTspiceXVII\Exp\Diode.asc


Date: Fri Jul 09 16:16:09 2021
Total elapsed time: 0.141 seconds.

tnom = 27
temp = 27
method = trap
totiter = 412
traniter = 0
tranpoints = 0
accept = 0
rejected = 0
matrix size = 4
fillins = 0
solver = Normal
Matrix Compiler1:       7 opcodes  0.1/[0.0]/0.0
Matrix Compiler2: off  [0.0]/0.1/0.1

