Circuit: * C:\users\raghuttam\My Documents\LTspiceXVII\basic-electronic-circuits\Draft3.asc

WARNING: Node N007 is floating.
WARNING: Node N008 is floating.
WARNING: Node N002 is floating.
WARNING: Node N003 is floating.

Direct Newton iteration for .op point succeeded.

Date: Fri Jul 23 11:28:59 2021
Total elapsed time: 0.093 seconds.

tnom = 27
temp = 27
method = modified trap
totiter = 2404
traniter = 2378
tranpoints = 1160
accept = 1154
rejected = 6
matrix size = 10
fillins = 0
solver = Normal
Matrix Compiler1: 632 bytes object code size  0.2/0.1/[0.0]
Matrix Compiler2: off  [0.1]/0.1/0.1

