Circuit: * C:\users\raghuttam\Documents\LTspiceXVII\basic-electronic-circuits\Draft4.asc

Direct Newton iteration for .op point succeeded.
.step r=100
.step r=1100
.step r=2100
.step r=3100
.step r=4100
.step r=5100
.step r=6100
.step r=7100
.step r=8100
.step r=9100
.step r=10000

Date: Tue Oct 26 12:28:01 2021
Total elapsed time: 1.020 seconds.

tnom = 27
temp = 27
method = modified trap
totiter = 2928
traniter = 2899
tranpoints = 1369
accept = 1307
rejected = 62
matrix size = 16
fillins = 0
solver = Normal
Matrix Compiler1: 912 bytes object code size  1.4/0.8/[0.6]
Matrix Compiler2: off  [0.7]/0.9/1.1

