Circuit: * C:\users\raghuttam\Documents\LTspiceXVII\basic-electronic-circuits\Draft1.asc

Direct Newton iteration for .op point succeeded.
Changing Tseed to 1e-010
Changing Tseed to 1e-012
Changing Tseed to 1e-009
Changing Tseed to 1e-013
Heightened Def Con from 1 to 1
Heightened Def Con from 1 to 1
Heightened Def Con from 1 to 1
Heightened Def Con from 1 to 1
Heightened Def Con from 1 to 1
Heightened Def Con from 1 +to 1
Heightened Def Con from 1 +to 1
Heightened Def Con from 1 +to 1
Heightened Def Con from 1 +to 1
Heightened Def Con from 1 to 1
Heightened Def Con from 2 to 2
Heightened Def Con from 2 to 2
Heightened Def Con from 2 to 2
Heightened Def Con from 2 to 2
Heightened Def Con from 8 to 8
Heightened Def Con from 8 to 8
Heightened Def Con from 8 to 8
Heightened Def Con from 9 to 9
Heightened Def Con from 9 to 9
Heightened Def Con from 9 to 9
Heightened Def Con from 9 to 9
Heightened Def Con from 10 to 10
Heightened Def Con from 10 to 10
Heightened Def Con from 10 to 10
Heightened Def Con from 10 to 10

Date: Wed Aug 18 17:40:20 2021
Total elapsed time: 0.411 seconds.

tnom = 27
temp = 27
method = modified trap
totiter = 9401
traniter = 9389
tranpoints = 2927
accept = 2612
rejected = 340
matrix size = 14
fillins = 0
solver = Normal
Matrix Compiler1: 636 bytes object code size  0.9/0.7/[0.6]
Matrix Compiler2: 1.13 KB object code size  0.7/0.9/[0.7]

