Circuit: * C:\users\raghuttam\Documents\LTspiceXVII\basic-electronic-circuits\Draft1.asc

Direct Newton iteration for .op point succeeded.
Changing Tseed to 1e-010
Changing Tseed to 1e-012
Changing Tseed to 1e-009
Changing Tseed to 1e-013
Heightened Def Con from 2 to 2
Heightened Def Con from 3 to 3
Heightened Def Con from 3 to 3
Heightened Def Con from 3 to 3
Heightened Def Con from 3 to 3
Heightened Def Con from 4 to 4
Heightened Def Con from 4 to 4
Heightened Def Con from 4 to 4
Heightened Def Con from 4 to 4
Heightened Def Con from 4 to 4
Heightened Def Con from 4 to 4
Heightened Def Con from 4 to 4
Heightened Def Con from 4 to 4
Heightened Def Con from 4 to 4
Heightened Def Con from 6 to 6
Heightened Def Con from 6 to 6
Heightened Def Con from 6 to 6
Heightened Def Con from 7 to 7
Heightened Def Con from 7 to 7
Heightened Def Con from 7 to 7
Heightened Def Con from 7 to 7

Date: Wed Aug 18 11:23:18 2021
Total elapsed time: 0.538 seconds.

tnom = 27
temp = 27
method = modified trap
totiter = 7146
traniter = 7136
tranpoints = 1876
accept = 1696
rejected = 197
matrix size = 14
fillins = 0
solver = Normal
Matrix Compiler1: 762 bytes object code size  1.5/1.1/[0.6]
Matrix Compiler2: 1.35 KB object code size  9.0/1.7/[0.9]

