Circuit: * C:\users\raghuttam\Documents\LTspiceXVII\basic-electronic-circuits\Draft8.asc

Direct Newton iteration failed to find .op point.  (Use ".option noopiter" to skip.)
Starting Gmin stepping
Gmin = 10
Gmin = 1.07374
Gmin = 0.115292
Gmin = 0.0123794
Gmin = 0.00132923
Gmin = 0.000142725
Gmin = 1.5325e-005
Gmin = 1.6455e-006
Gmin = 1.76685e-007
Gmin = 1.89714e-008
Gmin = 2.03704e-009
Gmin = 2.18725e-010
Gmin = 2.34854e-011
Gmin = 2.52173e-012
Gmin = 2.70769e-013
Gmin = 0
Gmin stepping succeeded in finding the operating point.

.step r=100
.step r=300
.step r=500
.step r=700
.step r=900
.step r=1100

Date: Mon Aug 02 16:42:41 2021
Total elapsed time: 0.670 seconds.

tnom = 27
temp = 27
method = modified trap
totiter = 2425
traniter = 2088
tranpoints = 1045
accept = 1045
rejected = 0
matrix size = 24
fillins = 43
solver = Normal
Thread vector: 8.4/5.8[2] 1.7/2.1[1] 1.8/2.1[1] 0.2/1.0[1]  2592/500
Matrix Compiler1: 3.84 KB object code size  0.8/0.4/[0.2]
Matrix Compiler2: 3.54 KB object code size  0.5/0.4/[0.3]

