Circuit: * C:\users\raghuttam\Documents\LTspiceXVII\basic-electronic-circuits\Draft5.asc

.OP point found by inspection.
.step r=50
.step r=150
.step r=250
.step r=350
.step r=450
.step r=550
.step r=650
.step r=750
.step r=850
.step r=950
.step r=1000

Date: Mon Aug 02 15:13:26 2021
Total elapsed time: 0.401 seconds.

tnom = 27
temp = 27
method = modified trap
totiter = 2140
traniter = 2140
tranpoints = 1071
accept = 1069
rejected = 2
matrix size = 4
fillins = 0
solver = Normal
Matrix Compiler1: 100 bytes object code size  0.3/0.2/[0.2]
Matrix Compiler2: 248 bytes object code size  0.3/0.3/[0.3]

