Circuit: * C:\users\raghuttam\Documents\LTspiceXVII\basic-electronic-circuits\Draft1.asc

Direct Newton iteration for .op point succeeded.
Changing Tseed to 1e-010
Changing Tseed to 1e-012
Changing Tseed to 1e-009
Changing Tseed to 1e-013
Heightened Def Con from 2 to 2
Heightened Def Con from 2 to 2
Heightened Def Con from 2 to 2
Heightened Def Con from 2 to 2

Date: Thu Aug 05 22:28:05 2021
Total elapsed time: 0.093 seconds.

tnom = 27
temp = 27
method = modified trap
totiter = 4769
traniter = 4764
tranpoints = 1550
accept = 1477
rejected = 73
matrix size = 8
fillins = 0
solver = Normal
Matrix Compiler1: 336 bytes object code size  0.1/0.1/[0.1]
Matrix Compiler2: 624 bytes object code size  0.1/0.2/[0.1]

