Circuit: * C:\users\raghuttam\My Documents\LTspiceXVII\basic-electronic-circuits\Draft1.asc

WARNING: Node N005 is floating.

Direct Newton iteration for .op point succeeded.

Date: Fri Jul 23 10:57:51 2021
Total elapsed time: 0.139 seconds.

tnom = 27
temp = 27
method = modified trap
totiter = 3353
traniter = 3321
tranpoints = 1096
accept = 1093
rejected = 3
matrix size = 8
fillins = 0
solver = Normal
Matrix Compiler1: 542 bytes object code size  0.1/0.1/[0.1]
Matrix Compiler2: off  [0.1]/0.1/0.1

