Circuit: * C:\users\raghuttam\Documents\LTspiceXVII\basic-electronic-circuits\Draft4.asc

Ignoring BSIM parameter XL
Ignoring BSIM parameter XW
Ignoring BSIM parameter CTA
Ignoring BSIM parameter CTP
Ignoring BSIM parameter PTA
Ignoring BSIM parameter PTP
Error on line 1127 : .model nmos nmos level = 49 lint = 4.e-08 tox = 4.e-09 vth0 = 0.3999 rdsw = 250 lmin=1.8e-7 lmax=1.8e-7 wmin=1.8e-7 wmax=1.0e-4 tref=27.0 version =3.1 xj= 6.0000000e-08 nch= 5.9500000e+17 lln= 1.0000000 lwn= 1.0000000 wln= 0.00 wwn= 0.00 ll= 0.00 lw= 0.00 lwl= 0.00 wint= 0.00 wl= 0.00 ww= 0.00 wwl= 0.00 mobmod= 1 binunit= 2 xl= 0 xw= 0 binflag= 0 dwg= 0.00 dwb= 0.00 k1= 0.5613000 k2= 1.0000000e-02 k3= 0.00 dvt0= 8.0000000 dvt1= 0.7500000 dvt2= 8.0000000e-03 dvt0w= 0.00 dvt1w= 0.00 dvt2w= 0.00 nlx= 1.6500000e-07 w0= 0.00 k3b= 0.00 ngate= 5.0000000e+20 vsat= 1.3800000e+05 ua= -7.0000000e-10 ub= 3.5000000e-18 uc= -5.2500000e-11 prwb= 0.00 prwg= 0.00 wr= 1.0000000 u0= 3.5000000e-02 a0= 1.1000000 keta= 4.0000000e-02 a1= 0.00 a2= 1.0000000 ags= -1.0000000e-02 b0= 0.00 b1= 0.00 voff= -0.12350000 nfactor= 0.9000000 cit= 0.00 cdsc= 0.00 cdscb= 0.00 cdscd= 0.00 eta0= 0.2200000 etab= 0.00 dsub= 0.8000000 pclm= 5.0000000e-02 pdiblc1= 1.2000000e-02 pdiblc2= 7.5000000e-03 pdiblcb= -1.3500000e-02 drout= 1.7999999e-02 pscbe1= 8.6600000e+08 pscbe2= 1.0000000e-20 pvag= -0.2800000 delta= 1.0000000e-02 alpha0= 0.00 beta0= 30.0000000 kt1= -0.3700000 kt2= -4.0000000e-02 at= 5.5000000e+04 ute= -1.4800000 ua1= 9.5829000e-10 ub1= -3.3473000e-19 uc1= 0.00 kt1l= 4.0000000e-09 prt= 0.00 cj= 0.00365 mj= 0.54 pb= 0.982 cjsw= 7.9e-10 mjsw= 0.31 php= 0.841 cta= 0 ctp= 0 pta= 0 ptp= 0 js=1.50e-08 jsw=2.50e-13 n=1.0 xti=3.0 cgdo=2.786e-10 cgso=2.786e-10 cgbo=0.0e+00 capmod= 2 nqsmod= 0 elm= 5 xpart= 1 cgsl= 1.6e-10 cgdl= 1.6e-10 ckappa= 2.886 cf= 1.069e-10 clc= 0.0000001 cle= 0.6 dlc= 4e-08 dwc= 0 vfbcv= -1
	* Unrecognized parameter "binflag" -- ignored
WARNING: Node NC_01 is floating.
WARNING: Node N002 is floating.

WARNING: Less than two connections to node N001.  This node is used by M1.
WARNING: Less than two connections to node NC_01.  This node is used by M1.
WARNING: Less than two connections to node N002.  This node is used by M1.
WARNING: Less than two connections to node NC_02.  This node is used by V2.
Warning: Pd = 0 is less than W.
Warning: Ps = 0 is less than W.
.OP point found by inspection.
.step vg=-15
.step vg=-14.9
.step vg=-14.8
.step vg=-14.7
.step vg=-14.6
.step vg=-14.5
.step vg=-14.4
.step vg=-14.3
.step vg=-14.2
.step vg=-14.1
.step vg=-14
.step vg=-13.9
.step vg=-13.8
.step vg=-13.7
.step vg=-13.6
.step vg=-13.5
.step vg=-13.4
.step vg=-13.3
.step vg=-13.2
.step vg=-13.1
.step vg=-13
.step vg=-12.9
.step vg=-12.8
.step vg=-12.7
.step vg=-12.6
.step vg=-12.5
.step vg=-12.4
.step vg=-12.3
.step vg=-12.2
.step vg=-12.1
.step vg=-12
.step vg=-11.9
.step vg=-11.8
.step vg=-11.7
.step vg=-11.6
.step vg=-11.5
.step vg=-11.4
.step vg=-11.3
.step vg=-11.2
.step vg=-11.1
.step vg=-11
.step vg=-10.9
.step vg=-10.8
.step vg=-10.7
.step vg=-10.6
.step vg=-10.5
.step vg=-10.4
.step vg=-10.3
.step vg=-10.2
.step vg=-10.1
.step vg=-10
.step vg=-9.9
.step vg=-9.8
.step vg=-9.7
.step vg=-9.6
.step vg=-9.5
.step vg=-9.4
.step vg=-9.3
.step vg=-9.2
.step vg=-9.1
.step vg=-9
.step vg=-8.9
.step vg=-8.8
.step vg=-8.7
.step vg=-8.6
.step vg=-8.5
.step vg=-8.4
.step vg=-8.3
.step vg=-8.2
.step vg=-8.1
.step vg=-8
.step vg=-7.9
.step vg=-7.8
.step vg=-7.7
.step vg=-7.6
.step vg=-7.5
.step vg=-7.4
.step vg=-7.3
.step vg=-7.2
.step vg=-7.1
.step vg=-7
.step vg=-6.9
.step vg=-6.8
.step vg=-6.7
.step vg=-6.6
.step vg=-6.5
.step vg=-6.4
.step vg=-6.3
.step vg=-6.2
.step vg=-6.1
.step vg=-6
.step vg=-5.9
.step vg=-5.8
.step vg=-5.7
.step vg=-5.6
.step vg=-5.5
.step vg=-5.4
.step vg=-5.3
.step vg=-5.2
.step vg=-5.1
.step vg=-5
.step vg=-4.9
.step vg=-4.8
.step vg=-4.7
.step vg=-4.6
.step vg=-4.5
.step vg=-4.4
.step vg=-4.3
.step vg=-4.2
.step vg=-4.1
.step vg=-4
.step vg=-3.9
.step vg=-3.8
.step vg=-3.7
.step vg=-3.6
.step vg=-3.5
.step vg=-3.4
.step vg=-3.3
.step vg=-3.2
.step vg=-3.1
.step vg=-3
.step vg=-2.9
.step vg=-2.8
.step vg=-2.7
.step vg=-2.6
.step vg=-2.5
.step vg=-2.4
.step vg=-2.3
.step vg=-2.2
.step vg=-2.1
.step vg=-2
.step vg=-1.9
.step vg=-1.8
.step vg=-1.7
.step vg=-1.6
.step vg=-1.5
.step vg=-1.4
.step vg=-1.3
.step vg=-1.2
.step vg=-1.1
.step vg=-1
.step vg=-0.9
.step vg=-0.8
.step vg=-0.7
.step vg=-0.6
.step vg=-0.5
.step vg=-0.4
.step vg=-0.3
.step vg=-0.2
.step vg=-0.1
.step vg=-3.65541e-014
.step vg=0.1
.step vg=0.2
.step vg=0.3
.step vg=0.4
.step vg=0.5
.step vg=0.6
.step vg=0.7
.step vg=0.8
.step vg=0.9
.step vg=1
.step vg=1.1
.step vg=1.2
.step vg=1.3
.step vg=1.4
.step vg=1.5
.step vg=1.6
.step vg=1.7
.step vg=1.8
.step vg=1.9
.step vg=2
.step vg=2.1
.step vg=2.2
.step vg=2.3
.step vg=2.4
.step vg=2.5
.step vg=2.6
.step vg=2.7
.step vg=2.8
.step vg=2.9
.step vg=3
.step vg=3.1
.step vg=3.2
.step vg=3.3
.step vg=3.4
.step vg=3.5
.step vg=3.6
.step vg=3.7
.step vg=3.8
.step vg=3.9
.step vg=4
.step vg=4.1
.step vg=4.2
.step vg=4.3
.step vg=4.4
.step vg=4.5
.step vg=4.6
.step vg=4.7
.step vg=4.8
.step vg=4.9
.step vg=5
.step vg=5.1
.step vg=5.2
.step vg=5.3
.step vg=5.4
.step vg=5.5
.step vg=5.6
.step vg=5.7
.step vg=5.8
.step vg=5.9
.step vg=6
.step vg=6.1
.step vg=6.2
.step vg=6.3
.step vg=6.4
.step vg=6.5
.step vg=6.6
.step vg=6.7
.step vg=6.8
.step vg=6.9
.step vg=7
.step vg=7.1
.step vg=7.2
.step vg=7.3
.step vg=7.4
.step vg=7.5
.step vg=7.6
.step vg=7.7
.step vg=7.8
.step vg=7.9
.step vg=8
.step vg=8.1
.step vg=8.2
.step vg=8.3
.step vg=8.4
.step vg=8.5
.step vg=8.6
.step vg=8.7
.step vg=8.8
.step vg=8.9
.step vg=9
.step vg=9.1
.step vg=9.2
.step vg=9.3
.step vg=9.4
.step vg=9.5
.step vg=9.6
.step vg=9.7
.step vg=9.8
.step vg=9.9
.step vg=10
.step vg=10.1
.step vg=10.2
.step vg=10.3
.step vg=10.4
.step vg=10.5
.step vg=10.6
.step vg=10.7
.step vg=10.8
.step vg=10.9
.step vg=11
.step vg=11.1
.step vg=11.2
.step vg=11.3
.step vg=11.4
.step vg=11.5
.step vg=11.6
.step vg=11.7
.step vg=11.8
.step vg=11.9
.step vg=12
.step vg=12.1
.step vg=12.2
.step vg=12.3
.step vg=12.4
.step vg=12.5
.step vg=12.6
.step vg=12.7
.step vg=12.8
.step vg=12.9
.step vg=13
.step vg=13.1
.step vg=13.2
.step vg=13.3
.step vg=13.4
.step vg=13.5
.step vg=13.6
.step vg=13.7
.step vg=13.8
.step vg=13.9
.step vg=14
.step vg=14.1
.step vg=14.2
.step vg=14.3
.step vg=14.4
.step vg=14.5
.step vg=14.6
.step vg=14.7
.step vg=14.8
.step vg=14.9
.step vg=15

Date: Mon Jan 17 18:55:51 2022
Total elapsed time: 6.774 seconds.

tnom = 27
temp = 27
method = modified trap
totiter = 2116
traniter = 2116
tranpoints = 1053
accept = 1053
rejected = 0
matrix size = 7
fillins = 0
solver = Normal
Matrix Compiler1:      17 opcodes  0.1/0.1/[0.1]
Matrix Compiler2: 501 bytes object code size  0.1/0.1/[0.1]

