Circuit: * C:\users\raghuttam\My Documents\LTspiceXVII\basic-electronic-circuits\Filter_HighPass.asc

R3: both pins shorted together -- ignoring.
Direct Newton iteration for .op point succeeded.

Date: Wed Jul 14 14:27:20 2021
Total elapsed time: 0.078 seconds.

tnom = 27
temp = 27
method = trap
totiter = 11
traniter = 0
tranpoints = 0
accept = 0
rejected = 0
matrix size = 38
fillins = 39
solver = Normal
Matrix Compiler1:     200 opcodes
Matrix Compiler2: 3.76 KB object code size
