Circuit: * C:\users\raghuttam\My Documents\LTspiceXVII\basic-electronic-circuits\Hartley_Oscillator.asc

Direct Newton iteration for .op point succeeded.
.step r=100
Heightened Def Con from 0.145953 to 0.145953
Heightened Def Con from 0.145953 to 0.145953
Heightened Def Con from 0.145953 to 0.145953
Heightened Def Con from 0.145953 to 0.145953
Heightened Def Con from 0.145953 to 0.145953
Heightened Def Con from 0.145953 to 0.145953
Heightened Def Con from 0.145953 to 0.145953
Heightened Def Con from 0.145953 to 0.145953
Heightened Def Con from 0.145953 to 0.145953
Heightened Def Con from 0.148443 to 0.148443
Heightened Def Con from 0.148443 to 0.148443
Heightened Def Con from 0.148443 to 0.148443
Heightened Def Con from 0.148443 to 0.148443
Heightened Def Con from 0.148443 to 0.148443
Heightened Def Con from 0.148443 to 0.148443
Heightened Def Con from 0.148443 to 0.148443
Heightened Def Con from 0.148443 to 0.148443
Heightened Def Con from 0.148443 to 0.148443
Heightened Def Con from 0.148443 to 0.148443
Heightened Def Con from 0.148443 to 0.148443
Heightened Def Con from 0.148443 to 0.148443
Heightened Def Con from 0.157166 to 0.157166
Heightened Def Con from 0.157166 to 0.157166
Heightened Def Con from 0.157166 to 0.157166
Heightened Def Con from 0.157166 to 0.157166
Heightened Def Con from 0.157166 to 0.157166
Heightened Def Con from 0.157166 to 0.157166
Heightened Def Con from 0.157166 to 0.157166
Heightened Def Con from 0.157166 to 0.157166
Heightened Def Con from 0.167141 to 0.167141
Heightened Def Con from 0.167141 to 0.167141
Heightened Def Con from 0.167141 to 0.167141
Heightened Def Con from 0.167141 to 0.167141
Heightened Def Con from 0.167141 to 0.167141
Heightened Def Con from 0.167141 to 0.167141
Heightened Def Con from 0.167141 to 0.167141
Heightened Def Con from 0.167141 to 0.167141
Heightened Def Con from 0.167141 to 0.167141
Heightened Def Con from 0.167141 to 0.167141
Heightened Def Con from 0.167141 to 0.167141
Heightened Def Con from 0.167141 to 0.167141
Heightened Def Con from 0.167141 to 0.167141
Heightened Def Con from 0.167141 to 0.167141
Heightened Def Con from 0.167141 to 0.167141
Heightened Def Con from 0.167142 to 0.167142
Heightened Def Con from 0.167142 to 0.167142
Heightened Def Con from 0.167142 to 0.167142
Heightened Def Con from 0.167142 to 0.167142
Heightened Def Con from 0.167142 to 0.167142
Heightened Def Con from 0.167142 to 0.167142
Heightened Def Con from 0.167142 to 0.167142
Heightened Def Con from 0.170881 to 0.170881
Heightened Def Con from 0.170881 to 0.170881
Heightened Def Con from 0.170881 to 0.170881
Heightened Def Con from 0.170881 to 0.170881
Heightened Def Con from 0.183353 to 0.183353
Heightened Def Con from 0.183353 to 0.183353
Heightened Def Con from 0.183353 to 0.183353
Heightened Def Con from 0.188351 to 0.188351
Heightened Def Con from 0.188351 to 0.188351
Heightened Def Con from 0.198338 to 0.198338
Heightened Def Con from 0.198338 to 0.198338
Heightened Def Con from 0.198338 to 0.198338
Heightened Def Con from 0.202083 to 0.202083
Heightened Def Con from 0.202083 to 0.202083
Heightened Def Con from 0.202083 to 0.202083
Heightened Def Con from 0.202083 to 0.202083
Heightened Def Con from 0.202083 to 0.202083
Heightened Def Con from 0.217053 to 0.217053
Heightened Def Con from 0.217053 to 0.217053
Heightened Def Con from 0.217053 to 0.217053
Heightened Def Con from 0.217053 to 0.217053
Heightened Def Con from 0.217053 to 0.217053
Heightened Def Con from 0.217053 to 0.217053
Heightened Def Con from 0.217053 to 0.217053
Heightened Def Con from 0.217053 to 0.217053
Heightened Def Con from 0.217053 to 0.217053
Heightened Def Con from 0.217053 to 0.217053
Heightened Def Con from 0.217053 to 0.217053
Heightened Def Con from 0.217053 to 0.217053
Heightened Def Con from 0.217053 to 0.217053
Heightened Def Con from 0.217053 to 0.217053
Heightened Def Con from 0.217053 to 0.217053
Heightened Def Con from 0.217053 to 0.217053
Heightened Def Con from 0.217053 to 0.217053
Heightened Def Con from 0.217053 to 0.217053
Heightened Def Con from 0.217054 to 0.217054
Heightened Def Con from 0.224537 to 0.224537
Heightened Def Con from 0.224537 to 0.224537
Heightened Def Con from 0.224537 to 0.224537
Heightened Def Con from 0.224537 to 0.224537
Heightened Def Con from 0.224537 to 0.224537
Heightened Def Con from 0.224537 to 0.224537
Heightened Def Con from 0.224537 to 0.224537
Heightened Def Con from 0.224537 to 0.224537
Heightened Def Con from 0.224537 to 0.224537
Heightened Def Con from 0.224537 to 0.224537
Heightened Def Con from 0.224537 to 0.224537
Heightened Def Con from 0.224537 to 0.224537
Heightened Def Con from 0.224537 to 0.224537
Heightened Def Con from 0.224537 to 0.224537
Heightened Def Con from 0.229532 to 0.229532
Heightened Def Con from 0.229532 to 0.229532
Heightened Def Con from 0.229532 to 0.229532
Heightened Def Con from 0.229532 to 0.229532
Heightened Def Con from 0.229532 to 0.229532
Heightened Def Con from 0.229532 to 0.229532
Heightened Def Con from 0.229532 to 0.229532
Heightened Def Con from 0.229532 to 0.229532
Heightened Def Con from 0.229532 to 0.229532
Heightened Def Con from 0.229532 to 0.229532
Heightened Def Con from 0.229532 to 0.229532
Heightened Def Con from 0.23078 to 0.23078
Heightened Def Con from 0.23078 to 0.23078
Heightened Def Con from 0.23078 to 0.23078
Heightened Def Con from 0.23078 to 0.23078
Heightened Def Con from 0.23078 to 0.23078
Heightened Def Con from 0.23078 to 0.23078
Heightened Def Con from 0.237027 to 0.237027
Heightened Def Con from 0.237027 to 0.237027
Heightened Def Con from 0.237027 to 0.237027
Heightened Def Con from 0.237027 to 0.237027
Heightened Def Con from 0.237027 to 0.237027
Heightened Def Con from 0.237027 to 0.237027
Heightened Def Con from 0.237027 to 0.237027
Heightened Def Con from 0.237027 to 0.237027
Heightened Def Con from 0.237027 to 0.237027
Heightened Def Con from 0.237027 to 0.237027
Heightened Def Con from 0.237027 to 0.237027
Heightened Def Con from 0.237027 to 0.237027
Heightened Def Con from 0.237027 to 0.237027
Heightened Def Con from 0.237027 to 0.237027
Heightened Def Con from 0.237027 to 0.237027
Heightened Def Con from 0.237027 to 0.237027
Heightened Def Con from 0.242023 to 0.242023
Heightened Def Con from 0.242023 to 0.242023
Heightened Def Con from 0.242023 to 0.242023
Heightened Def Con from 0.242023 to 0.242023
Heightened Def Con from 0.242023 to 0.242023
Heightened Def Con from 0.242023 to 0.242023
Heightened Def Con from 0.242023 to 0.242023
Heightened Def Con from 0.242023 to 0.242023
Heightened Def Con from 0.242023 to 0.242023
Heightened Def Con from 0.242023 to 0.242023
Heightened Def Con from 0.249514 to 0.249514
Heightened Def Con from 0.249514 to 0.249514
Heightened Def Con from 0.249514 to 0.249514
Heightened Def Con from 0.249514 to 0.249514
Heightened Def Con from 0.249514 to 0.249514
Heightened Def Con from 0.249514 to 0.249514
Heightened Def Con from 0.249514 to 0.249514
Heightened Def Con from 0.249514 to 0.249514
Heightened Def Con from 0.254508 to 0.254508
Heightened Def Con from 0.254508 to 0.254508
Heightened Def Con from 0.254508 to 0.254508
Heightened Def Con from 0.254508 to 0.254508
Heightened Def Con from 0.254508 to 0.254508
Heightened Def Con from 0.254508 to 0.254508
Heightened Def Con from 0.254508 to 0.254508
Heightened Def Con from 0.254508 to 0.254508
Heightened Def Con from 0.257009 to 0.257009
Heightened Def Con from 0.257009 to 0.257009
Heightened Def Con from 0.257009 to 0.257009
Heightened Def Con from 0.257009 to 0.257009
Heightened Def Con from 0.28322 to 0.28322
Heightened Def Con from 0.28322 to 0.28322
Heightened Def Con from 0.28322 to 0.28322
Heightened Def Con from 0.28322 to 0.28322
Heightened Def Con from 0.28322 to 0.28322
Heightened Def Con from 0.298205 to 0.298205
Heightened Def Con from 0.303199 to 0.303199
Heightened Def Con from 0.303199 to 0.303199
Heightened Def Con from 0.303199 to 0.303199
Heightened Def Con from 0.303199 to 0.303199
Heightened Def Con from 0.303199 to 0.303199
Heightened Def Con from 0.303199 to 0.303199
Heightened Def Con from 0.303199 to 0.303199
Heightened Def Con from 0.303199 to 0.303199
Heightened Def Con from 0.303199 to 0.303199
Heightened Def Con from 0.303199 to 0.303199
Heightened Def Con from 0.303199 to 0.303199
Heightened Def Con from 0.303199 to 0.303199
Heightened Def Con from 0.303199 to 0.303199
Heightened Def Con from 0.303199 to 0.303199
Heightened Def Con from 0.303199 to 0.303199
Heightened Def Con from 0.303199 to 0.303199
Heightened Def Con from 0.303199 to 0.303199
Heightened Def Con from 0.303199 to 0.303199
Heightened Def Con from 0.308198 to 0.308198
Heightened Def Con from 0.308198 to 0.308198
Heightened Def Con from 0.308198 to 0.308198
Heightened Def Con from 0.309446 to 0.309446
Heightened Def Con from 0.309446 to 0.309446
Heightened Def Con from 0.309446 to 0.309446
Heightened Def Con from 0.309446 to 0.309446
Heightened Def Con from 0.309446 to 0.309446
Heightened Def Con from 0.309446 to 0.309446
Heightened Def Con from 0.309446 to 0.309446
Heightened Def Con from 0.309446 to 0.309446
Heightened Def Con from 0.309446 to 0.309446
Heightened Def Con from 0.309446 to 0.309446
Heightened Def Con from 0.309446 to 0.309447
Heightened Def Con from 0.309447 to 0.309447
Heightened Def Con from 0.309447 to 0.309447
Heightened Def Con from 0.309447 to 0.309447
Heightened Def Con from 0.313189 to 0.313189
Heightened Def Con from 0.313189 to 0.313189
Heightened Def Con from 0.313189 to 0.313189
Heightened Def Con from 0.313189 to 0.313189
Heightened Def Con from 0.313189 to 0.313189
Heightened Def Con from 0.321926 to 0.321926
Heightened Def Con from 0.321926 to 0.321926
Heightened Def Con from 0.321926 to 0.321926
Heightened Def Con from 0.321926 to 0.321926
Heightened Def Con from 0.321926 to 0.321926
Heightened Def Con from 0.321926 to 0.321926
Heightened Def Con from 0.321926 to 0.321926
Heightened Def Con from 0.321926 to 0.321926
Heightened Def Con from 0.321926 to 0.321926
Heightened Def Con from 0.321926 to 0.321926
Heightened Def Con from 0.321926 to 0.321926
Heightened Def Con from 0.323174 to 0.323174
Heightened Def Con from 0.323174 to 0.323174
Heightened Def Con from 0.323174 to 0.323174
Heightened Def Con from 0.323174 to 0.323174
Heightened Def Con from 0.32567 to 0.32567
Heightened Def Con from 0.32567 to 0.32567
Heightened Def Con from 0.32567 to 0.32567
Heightened Def Con from 0.32567 to 0.32567
Heightened Def Con from 0.35563 to 0.35563
Heightened Def Con from 0.35563 to 0.35563
Heightened Def Con from 0.35563 to 0.35563
Heightened Def Con from 0.35563 to 0.35563
Heightened Def Con from 0.35563 to 0.35563
Heightened Def Con from 0.35563 to 0.35563
Heightened Def Con from 0.35563 to 0.35563
Heightened Def Con from 0.35563 to 0.35563
Heightened Def Con from 0.35563 to 0.355631
Heightened Def Con from 0.355631 to 0.355631
Heightened Def Con from 0.355631 to 0.355631
Heightened Def Con from 0.355631 to 0.355631
Heightened Def Con from 0.358126 to 0.358126
Heightened Def Con from 0.358126 to 0.358126
Heightened Def Con from 0.358126 to 0.358126
Heightened Def Con from 0.358126 to 0.358126
Heightened Def Con from 0.366864 to 0.366864
Heightened Def Con from 0.366864 to 0.366864
Heightened Def Con from 0.366864 to 0.366864
Heightened Def Con from 0.366864 to 0.366864
Heightened Def Con from 0.366864 to 0.366864
Heightened Def Con from 0.369359 to 0.369359
Heightened Def Con from 0.369359 to 0.369359
Heightened Def Con from 0.369359 to 0.369359
Heightened Def Con from 0.369359 to 0.369359
Heightened Def Con from 0.369359 to 0.369359
Heightened Def Con from 0.374354 to 0.374354
Heightened Def Con from 0.374354 to 0.374354
Heightened Def Con from 0.374354 to 0.374354
Heightened Def Con from 0.374354 to 0.374354
Heightened Def Con from 0.374354 to 0.374354
Heightened Def Con from 0.386832 to 0.386832
Heightened Def Con from 0.386832 to 0.386832
Heightened Def Con from 0.386832 to 0.386832
Heightened Def Con from 0.386832 to 0.386832
Heightened Def Con from 0.386832 to 0.386832
Heightened Def Con from 0.386832 to 0.386832
Heightened Def Con from 0.386832 to 0.386832
Heightened Def Con from 0.398065 to 0.398065
Heightened Def Con from 0.398065 to 0.398065
Heightened Def Con from 0.398065 to 0.398065
Heightened Def Con from 0.398065 to 0.398065
Heightened Def Con from 0.398065 to 0.398065
Heightened Def Con from 0.398065 to 0.398065
Heightened Def Con from 0.398066 to 0.398066
Heightened Def Con from 0.406806 to 0.406806
Heightened Def Con from 0.406806 to 0.406806
Heightened Def Con from 0.406806 to 0.406806
Heightened Def Con from 0.406806 to 0.406806
Heightened Def Con from 0.406806 to 0.406806
Heightened Def Con from 0.406806 to 0.406806
Heightened Def Con from 0.408054 to 0.408054
Heightened Def Con from 0.408054 to 0.408054
Heightened Def Con from 0.408054 to 0.408054
Heightened Def Con from 0.408054 to 0.408054
Heightened Def Con from 0.408054 to 0.408054
Heightened Def Con from 0.408054 to 0.408054
Heightened Def Con from 0.408054 to 0.408054
Heightened Def Con from 0.408054 to 0.408054
Heightened Def Con from 0.408054 to 0.408054
Heightened Def Con from 0.408054 to 0.408054
Heightened Def Con from 0.408054 to 0.408054
Heightened Def Con from 0.408054 to 0.408054
Heightened Def Con from 0.408054 to 0.408054
Heightened Def Con from 0.408054 to 0.408054
Heightened Def Con from 0.408054 to 0.408054
Heightened Def Con from 0.409305 to 0.409305
Heightened Def Con from 0.409305 to 0.409305
Heightened Def Con from 0.409305 to 0.409305
Heightened Def Con from 0.409305 to 0.409305
Heightened Def Con from 0.409305 to 0.409305
Heightened Def Con from 0.409305 to 0.409305
Heightened Def Con from 0.430534 to 0.430534
Heightened Def Con from 0.430534 to 0.430534
Heightened Def Con from 0.430534 to 0.430534
Heightened Def Con from 0.430534 to 0.430534
Heightened Def Con from 0.430534 to 0.430534
Heightened Def Con from 0.430534 to 0.430534
Heightened Def Con from 0.433029 to 0.433029
Heightened Def Con from 0.433029 to 0.433029
Heightened Def Con from 0.433029 to 0.433029
Heightened Def Con from 0.433029 to 0.433029
Heightened Def Con from 0.433029 to 0.433029
Heightened Def Con from 0.433029 to 0.433029
Heightened Def Con from 0.433029 to 0.433029
Heightened Def Con from 0.433029 to 0.433029
Heightened Def Con from 0.433029 to 0.433029
Heightened Def Con from 0.433029 to 0.433029
Heightened Def Con from 0.433029 to 0.433029
Heightened Def Con from 0.433029 to 0.433029
Heightened Def Con from 0.434276 to 0.434276
Heightened Def Con from 0.434276 to 0.434276
Heightened Def Con from 0.434276 to 0.434276
Heightened Def Con from 0.434276 to 0.434276
Heightened Def Con from 0.434276 to 0.434276
Heightened Def Con from 0.434276 to 0.434276
Heightened Def Con from 0.434276 to 0.434276
Heightened Def Con from 0.434276 to 0.434276
Heightened Def Con from 0.434276 to 0.434276
Heightened Def Con from 0.434276 to 0.434276
Heightened Def Con from 0.434276 to 0.434276
Heightened Def Con from 0.434276 to 0.434276
Heightened Def Con from 0.434276 to 0.434276
Heightened Def Con from 0.434276 to 0.434276
Heightened Def Con from 0.434276 to 0.434276
Heightened Def Con from 0.434276 to 0.434276
Heightened Def Con from 0.434276 to 0.434276
Heightened Def Con from 0.434276 to 0.434276
Heightened Def Con from 0.434276 to 0.434276
Heightened Def Con from 0.434276 to 0.434276
Heightened Def Con from 0.434276 to 0.434276
Heightened Def Con from 0.434277 to 0.434277
Heightened Def Con from 0.434277 to 0.434277
Heightened Def Con from 0.434277 to 0.434277
Heightened Def Con from 0.434277 to 0.434277
Heightened Def Con from 0.434277 to 0.434277
Heightened Def Con from 0.434277 to 0.434277
Heightened Def Con from 0.450514 to 0.450514
Heightened Def Con from 0.450514 to 0.450515
Heightened Def Con from 0.450515 to 0.450515
Heightened Def Con from 0.450515 to 0.450515
Heightened Def Con from 0.450515 to 0.450515
Heightened Def Con from 0.450515 to 0.450515
Heightened Def Con from 0.450515 to 0.450515
Heightened Def Con from 0.450515 to 0.450515
Heightened Def Con from 0.450515 to 0.450515
Heightened Def Con from 0.450515 to 0.450515
Heightened Def Con from 0.456754 to 0.456754
Heightened Def Con from 0.456754 to 0.456754
Heightened Def Con from 0.456754 to 0.456754
Heightened Def Con from 0.456754 to 0.456754
Heightened Def Con from 0.456754 to 0.456754
Heightened Def Con from 0.456754 to 0.456754
Heightened Def Con from 0.464243 to 0.464243
Heightened Def Con from 0.464243 to 0.464243
Heightened Def Con from 0.464243 to 0.464243
Heightened Def Con from 0.464243 to 0.464243
Heightened Def Con from 0.464243 to 0.464243
Heightened Def Con from 0.464243 to 0.464243
Heightened Def Con from 0.464243 to 0.464243
Heightened Def Con from 0.467988 to 0.467988
Heightened Def Con from 0.467988 to 0.467988
Heightened Def Con from 0.467988 to 0.467988
Heightened Def Con from 0.467988 to 0.467988
Heightened Def Con from 0.467988 to 0.467988
Heightened Def Con from 0.477975 to 0.477975
Heightened Def Con from 0.477976 to 0.477976
Heightened Def Con from 0.477976 to 0.477976
Heightened Def Con from 0.477976 to 0.477976
Heightened Def Con from 0.477976 to 0.477976
Heightened Def Con from 0.477976 to 0.477976
Heightened Def Con from 0.477976 to 0.477976
Heightened Def Con from 0.479226 to 0.479226
Heightened Def Con from 0.479226 to 0.479226
Heightened Def Con from 0.479226 to 0.479226
Heightened Def Con from 0.479226 to 0.479226
Heightened Def Con from 0.479226 to 0.479226
Heightened Def Con from 0.479226 to 0.479226
Heightened Def Con from 0.479226 to 0.479226
Heightened Def Con from 0.479226 to 0.479226
Heightened Def Con from 0.479226 to 0.479226
Heightened Def Con from 0.479226 to 0.479226
Heightened Def Con from 0.494208 to 0.494208
Heightened Def Con from 0.494208 to 0.494208
Heightened Def Con from 0.494208 to 0.494208
Heightened Def Con from 0.494208 to 0.494208
Heightened Def Con from 0.494208 to 0.494208
Heightened Def Con from 0.495455 to 0.495455
Heightened Def Con from 0.495455 to 0.495455
Heightened Def Con from 0.495455 to 0.495455
Heightened Def Con from 0.495455 to 0.495455
Heightened Def Con from 0.495455 to 0.495455
Heightened Def Con from 0.495455 to 0.495455
Heightened Def Con from 0.495456 to 0.495456
Heightened Def Con from 0.495456 to 0.495456
Heightened Def Con from 0.495456 to 0.495456
Heightened Def Con from 0.495456 to 0.495456
Heightened Def Con from 0.495456 to 0.495456
Heightened Def Con from 0.495456 to 0.495456
Heightened Def Con from 0.495456 to 0.495456
Heightened Def Con from 0.495456 to 0.495456
Heightened Def Con from 0.495456 to 0.495456
Heightened Def Con from 0.499199 to 0.499199
Heightened Def Con from 0.499199 to 0.499199
Heightened Def Con from 0.499199 to 0.499199
Heightened Def Con from 0.499199 to 0.499199
Heightened Def Con from 0.499199 to 0.499199
Heightened Def Con from 0.499199 to 0.499199
Heightened Def Con from 0.499199 to 0.499199
Heightened Def Con from 0.499199 to 0.499199
Heightened Def Con from 0.512932 to 0.512932
Heightened Def Con from 0.512932 to 0.512932
Heightened Def Con from 0.512932 to 0.512932
Heightened Def Con from 0.512932 to 0.512932
Heightened Def Con from 0.512932 to 0.512932
Heightened Def Con from 0.512932 to 0.512932
Heightened Def Con from 0.512932 to 0.512932
Heightened Def Con from 0.512932 to 0.512932
Heightened Def Con from 0.512932 to 0.512932
Heightened Def Con from 0.512932 to 0.512932
Heightened Def Con from 0.512932 to 0.512932
Heightened Def Con from 0.512932 to 0.512932
Heightened Def Con from 0.512932 to 0.512932
Heightened Def Con from 0.512932 to 0.512932
Heightened Def Con from 0.512932 to 0.512932
Heightened Def Con from 0.512932 to 0.512932
Heightened Def Con from 0.512932 to 0.512932
Heightened Def Con from 0.512932 to 0.512932
Heightened Def Con from 0.512932 to 0.512932
Heightened Def Con from 0.512932 to 0.512932
Heightened Def Con from 0.512932 to 0.512932
Heightened Def Con from 0.512932 to 0.512932
Heightened Def Con from 0.512932 to 0.512932
Heightened Def Con from 0.512932 to 0.512932
Heightened Def Con from 0.512932 to 0.512932
Heightened Def Con from 0.512932 to 0.512932
Heightened Def Con from 0.512932 to 0.512932
Heightened Def Con from 0.512932 to 0.512932
Heightened Def Con from 0.554123 to 0.554123
Heightened Def Con from 0.555371 to 0.555371
Heightened Def Con from 0.555371 to 0.555371
Heightened Def Con from 0.555371 to 0.555371
Heightened Def Con from 0.555371 to 0.555371
Heightened Def Con from 0.555371 to 0.555371
Heightened Def Con from 0.555371 to 0.555371
Heightened Def Con from 0.555371 to 0.555371
Heightened Def Con from 0.555371 to 0.555371
Heightened Def Con from 0.555371 to 0.555371
Heightened Def Con from 0.581591 to 0.581591
Heightened Def Con from 0.581591 to 0.581591
Heightened Def Con from 0.581591 to 0.581591
Heightened Def Con from 0.581591 to 0.581591
Heightened Def Con from 0.581591 to 0.581591
Heightened Def Con from 0.581591 to 0.581591
Heightened Def Con from 0.581591 to 0.581591
Heightened Def Con from 0.581591 to 0.581591
Heightened Def Con from 0.581591 to 0.581591
Heightened Def Con from 0.581591 to 0.581591
Heightened Def Con from 0.581591 to 0.581591
Heightened Def Con from 0.581591 to 0.581591
Heightened Def Con from 0.581591 to 0.581591
Heightened Def Con from 0.581591 to 0.581591
Heightened Def Con from 0.581591 to 0.581591
Heightened Def Con from 0.581591 to 0.581591
Heightened Def Con from 0.581591 to 0.581591
Heightened Def Con from 0.581591 to 0.581591
Heightened Def Con from 0.582839 to 0.582839
Heightened Def Con from 0.582839 to 0.582839
Heightened Def Con from 0.582839 to 0.582839
Heightened Def Con from 0.582839 to 0.582839
Heightened Def Con from 0.582839 to 0.582839
Heightened Def Con from 0.582839 to 0.582839
Heightened Def Con from 0.582839 to 0.582839
Heightened Def Con from 0.594072 to 0.594072
Heightened Def Con from 0.594072 to 0.594072
Heightened Def Con from 0.594072 to 0.594072
Heightened Def Con from 0.594072 to 0.594072
Heightened Def Con from 0.594072 to 0.594072
Heightened Def Con from 0.594072 to 0.594072
Heightened Def Con from 0.594072 to 0.594072
Heightened Def Con from 0.594072 to 0.594072
Heightened Def Con from 0.594072 to 0.594072
Heightened Def Con from 0.594072 to 0.594072
Heightened Def Con from 0.594072 to 0.594072
Heightened Def Con from 0.594072 to 0.594072
Heightened Def Con from 0.594072 to 0.594072
Heightened Def Con from 0.594072 to 0.594072
Heightened Def Con from 0.594072 to 0.594072
Heightened Def Con from 0.594072 to 0.594073
Heightened Def Con from 0.619039 to 0.619039
Heightened Def Con from 0.619039 to 0.619039
Heightened Def Con from 0.619039 to 0.619039
Heightened Def Con from 0.619039 to 0.619039
Heightened Def Con from 0.619039 to 0.619039
Heightened Def Con from 0.619039 to 0.619039
Heightened Def Con from 0.619039 to 0.619039
Heightened Def Con from 0.619039 to 0.619039
Heightened Def Con from 0.619039 to 0.619039
Heightened Def Con from 0.619039 to 0.619039
Heightened Def Con from 0.619039 to 0.619039
Heightened Def Con from 0.619039 to 0.619039
Heightened Def Con from 0.619039 to 0.619039
Heightened Def Con from 0.619039 to 0.619039
Heightened Def Con from 0.619039 to 0.619039
Heightened Def Con from 0.619039 to 0.619039
Heightened Def Con from 0.619039 to 0.619039
Heightened Def Con from 0.619039 to 0.619039
Heightened Def Con from 0.619039 to 0.619039
Heightened Def Con from 0.619039 to 0.619039
Heightened Def Con from 0.619039 to 0.619039
Heightened Def Con from 0.619039 to 0.619039
Heightened Def Con from 0.619039 to 0.619039
Heightened Def Con from 0.619039 to 0.619039
Heightened Def Con from 0.619039 to 0.619039
Heightened Def Con from 0.619039 to 0.619039
Heightened Def Con from 0.61904 to 0.61904
Heightened Def Con from 0.61904 to 0.61904
Heightened Def Con from 0.62653 to 0.62653
Heightened Def Con from 0.62653 to 0.62653
Heightened Def Con from 0.62653 to 0.62653
Heightened Def Con from 0.62653 to 0.62653
Heightened Def Con from 0.62653 to 0.62653
Heightened Def Con from 0.62653 to 0.62653
Heightened Def Con from 0.63402 to 0.63402
Heightened Def Con from 0.63402 to 0.63402
Heightened Def Con from 0.63402 to 0.63402
Heightened Def Con from 0.63402 to 0.63402
Heightened Def Con from 0.64525 to 0.64525
Heightened Def Con from 0.64525 to 0.64525
Heightened Def Con from 0.64525 to 0.64525
Heightened Def Con from 0.64525 to 0.64525
Heightened Def Con from 0.64525 to 0.64525
Heightened Def Con from 0.64525 to 0.64525
Heightened Def Con from 0.64525 to 0.64525
Heightened Def Con from 0.64525 to 0.64525
Heightened Def Con from 0.64525 to 0.64525
Heightened Def Con from 0.64525 to 0.64525
Heightened Def Con from 0.64525 to 0.64525
Heightened Def Con from 0.64525 to 0.64525
Heightened Def Con from 0.64525 to 0.64525
Heightened Def Con from 0.64525 to 0.64525
Heightened Def Con from 0.648993 to 0.648993
Heightened Def Con from 0.648993 to 0.648993
Heightened Def Con from 0.648993 to 0.648993
Heightened Def Con from 0.648993 to 0.648993
Heightened Def Con from 0.648993 to 0.648993
Heightened Def Con from 0.651492 to 0.651492
Heightened Def Con from 0.651492 to 0.651492
Heightened Def Con from 0.651492 to 0.651492
Heightened Def Con from 0.651492 to 0.651492
Heightened Def Con from 0.651492 to 0.651492
Heightened Def Con from 0.651492 to 0.651492
Heightened Def Con from 0.658986 to 0.658986
Heightened Def Con from 0.658986 to 0.658986
Heightened Def Con from 0.658986 to 0.658986
Heightened Def Con from 0.660234 to 0.660234
Heightened Def Con from 0.660234 to 0.660234
Heightened Def Con from 0.660234 to 0.660234
Heightened Def Con from 0.660234 to 0.660235
Heightened Def Con from 0.660235 to 0.660235
Heightened Def Con from 0.660235 to 0.660235
Heightened Def Con from 0.660235 to 0.660235
Heightened Def Con from 0.660235 to 0.660235
Heightened Def Con from 0.660235 to 0.660235
Heightened Def Con from 0.660235 to 0.660235
Heightened Def Con from 0.660235 to 0.660235
Heightened Def Con from 0.660235 to 0.660235
Heightened Def Con from 0.660235 to 0.660235
Heightened Def Con from 0.660235 to 0.660235
Heightened Def Con from 0.665225 to 0.665225
Heightened Def Con from 0.668967 to 0.668967
Heightened Def Con from 0.668967 to 0.668967
Heightened Def Con from 0.668967 to 0.668967
Heightened Def Con from 0.668967 to 0.668967
Heightened Def Con from 0.668967 to 0.668967
Heightened Def Con from 0.668967 to 0.668967
Heightened Def Con from 0.668967 to 0.668967
Heightened Def Con from 0.668967 to 0.668967
Heightened Def Con from 0.668967 to 0.668967
Heightened Def Con from 0.668967 to 0.668967
Heightened Def Con from 0.668967 to 0.668967
Heightened Def Con from 0.668967 to 0.668967
Heightened Def Con from 0.670217 to 0.670217
Heightened Def Con from 0.670217 to 0.670217
Heightened Def Con from 0.670217 to 0.670217
Heightened Def Con from 0.670217 to 0.670217
Heightened Def Con from 0.670217 to 0.670217
Heightened Def Con from 0.670217 to 0.670217
Heightened Def Con from 0.670217 to 0.670217
Heightened Def Con from 0.670217 to 0.670217
Heightened Def Con from 0.671464 to 0.671464
Heightened Def Con from 0.671464 to 0.671464
Heightened Def Con from 0.671464 to 0.671464
Heightened Def Con from 0.671464 to 0.671464
Heightened Def Con from 0.671464 to 0.671464
Heightened Def Con from 0.671464 to 0.671464
Heightened Def Con from 0.671464 to 0.671464
Heightened Def Con from 0.671465 to 0.671465
Heightened Def Con from 0.671465 to 0.671465
Heightened Def Con from 0.671465 to 0.671465
Heightened Def Con from 0.671465 to 0.671465
Heightened Def Con from 0.671465 to 0.671465
Heightened Def Con from 0.672712 to 0.672712
Heightened Def Con from 0.672712 to 0.672712
Heightened Def Con from 0.672712 to 0.672712
Heightened Def Con from 0.673962 to 0.673962
Heightened Def Con from 0.673962 to 0.673962
Heightened Def Con from 0.673962 to 0.673962
Heightened Def Con from 0.67646 to 0.67646
Heightened Def Con from 0.67646 to 0.67646
Heightened Def Con from 0.67646 to 0.67646
Heightened Def Con from 0.67646 to 0.67646
Heightened Def Con from 0.67646 to 0.67646
Heightened Def Con from 0.67646 to 0.67646
Heightened Def Con from 0.67646 to 0.67646
Heightened Def Con from 0.677708 to 0.677708
Heightened Def Con from 0.677708 to 0.677708
Heightened Def Con from 0.677708 to 0.677708
Heightened Def Con from 0.677708 to 0.677708
Heightened Def Con from 0.677708 to 0.677708
Heightened Def Con from 0.677708 to 0.677708
Heightened Def Con from 0.677708 to 0.677708
Heightened Def Con from 0.677708 to 0.677708
Heightened Def Con from 0.677708 to 0.677708
Heightened Def Con from 0.677708 to 0.677708
Heightened Def Con from 0.677708 to 0.677708
Heightened Def Con from 0.680203 to 0.680203
Heightened Def Con from 0.680203 to 0.680203
Heightened Def Con from 0.680203 to 0.680203
Heightened Def Con from 0.683949 to 0.683949
Heightened Def Con from 0.683949 to 0.683949
Heightened Def Con from 0.683949 to 0.683949
Heightened Def Con from 0.683949 to 0.683949
Heightened Def Con from 0.683949 to 0.683949
Heightened Def Con from 0.683949 to 0.683949
Heightened Def Con from 0.683949 to 0.683949
Heightened Def Con from 0.683949 to 0.683949
Heightened Def Con from 0.683949 to 0.683949
Heightened Def Con from 0.683949 to 0.683949
Heightened Def Con from 0.683949 to 0.683949
Heightened Def Con from 0.683949 to 0.683949
Heightened Def Con from 0.683949 to 0.683949
Heightened Def Con from 0.683949 to 0.683949
Heightened Def Con from 0.68395 to 0.68395
Heightened Def Con from 0.68395 to 0.68395
Heightened Def Con from 0.68395 to 0.68395
Heightened Def Con from 0.68395 to 0.68395
Heightened Def Con from 0.68395 to 0.68395
Heightened Def Con from 0.691438 to 0.691438
Heightened Def Con from 0.691438 to 0.691438
Heightened Def Con from 0.691438 to 0.691438
Heightened Def Con from 0.691438 to 0.691438
Heightened Def Con from 0.691438 to 0.691438
Heightened Def Con from 0.692685 to 0.692685
Heightened Def Con from 0.692685 to 0.692685
Heightened Def Con from 0.692685 to 0.692685
Heightened Def Con from 0.692685 to 0.692685
Heightened Def Con from 0.692685 to 0.692685
Heightened Def Con from 0.692685 to 0.692686
Heightened Def Con from 0.692686 to 0.692686
Heightened Def Con from 0.692686 to 0.692686
Heightened Def Con from 0.692686 to 0.692686
Heightened Def Con from 0.692686 to 0.692686
Heightened Def Con from 0.692686 to 0.692686
Heightened Def Con from 0.692686 to 0.692686
Heightened Def Con from 0.692686 to 0.692686
Heightened Def Con from 0.692686 to 0.692686
Heightened Def Con from 0.692686 to 0.692686
Heightened Def Con from 0.692686 to 0.692686
Heightened Def Con from 0.692686 to 0.692686
Heightened Def Con from 0.692686 to 0.692686
Heightened Def Con from 0.693935 to 0.693935
Heightened Def Con from 0.693935 to 0.693935
Heightened Def Con from 0.693935 to 0.693935
Heightened Def Con from 0.695182 to 0.695182
Heightened Def Con from 0.695182 to 0.695182
Heightened Def Con from 0.695182 to 0.695182
Heightened Def Con from 0.695182 to 0.695182
Heightened Def Con from 0.695182 to 0.695182
Heightened Def Con from 0.695182 to 0.695182
Heightened Def Con from 0.695182 to 0.695182
Heightened Def Con from 0.695182 to 0.695182
Heightened Def Con from 0.695182 to 0.695182
Heightened Def Con from 0.695182 to 0.695182
Heightened Def Con from 0.721396 to 0.721396
Heightened Def Con from 0.721396 to 0.721396
Heightened Def Con from 0.721396 to 0.721396
Heightened Def Con from 0.721396 to 0.721396
Heightened Def Con from 0.721396 to 0.721396
Heightened Def Con from 0.721396 to 0.721396
Heightened Def Con from 0.722645 to 0.722645
Heightened Def Con from 0.722645 to 0.722645
Heightened Def Con from 0.722645 to 0.722645
Heightened Def Con from 0.722645 to 0.722645
Heightened Def Con from 0.722645 to 0.722645
Heightened Def Con from 0.725141 to 0.725141
Heightened Def Con from 0.725141 to 0.725141
Heightened Def Con from 0.725141 to 0.725141
Heightened Def Con from 0.725141 to 0.725141
Heightened Def Con from 0.725141 to 0.725141
Heightened Def Con from 0.725141 to 0.725141
Heightened Def Con from 0.725141 to 0.725141
Heightened Def Con from 0.725141 to 0.725141
Heightened Def Con from 0.726389 to 0.726389
Heightened Def Con from 0.726389 to 0.726389
Heightened Def Con from 0.726389 to 0.726389
Heightened Def Con from 0.726389 to 0.726389
Heightened Def Con from 0.726389 to 0.726389
Heightened Def Con from 0.726389 to 0.726389
Heightened Def Con from 0.726389 to 0.726389
Heightened Def Con from 0.726389 to 0.726389
Heightened Def Con from 0.726389 to 0.726389
Heightened Def Con from 0.726389 to 0.726389
Heightened Def Con from 0.726389 to 0.726389
Heightened Def Con from 0.726389 to 0.726389
Heightened Def Con from 0.726389 to 0.726389
Heightened Def Con from 0.726389 to 0.726389
Heightened Def Con from 0.726389 to 0.726389
Heightened Def Con from 0.726389 to 0.726389
Heightened Def Con from 0.726389 to 0.726389
Heightened Def Con from 0.72639 to 0.72639
Heightened Def Con from 0.72639 to 0.72639
Heightened Def Con from 0.72639 to 0.72639
Heightened Def Con from 0.72639 to 0.72639
Heightened Def Con from 0.731384 to 0.731384
Heightened Def Con from 0.731384 to 0.731384
Heightened Def Con from 0.731384 to 0.731384
Heightened Def Con from 0.731384 to 0.731384
Heightened Def Con from 0.731384 to 0.731384
Heightened Def Con from 0.731384 to 0.731384
Heightened Def Con from 0.731384 to 0.731384
Heightened Def Con from 0.731384 to 0.731384
Heightened Def Con from 0.731384 to 0.731384
Heightened Def Con from 0.731384 to 0.731384
Heightened Def Con from 0.731384 to 0.731384
Heightened Def Con from 0.745122 to 0.745122
Heightened Def Con from 0.745122 to 0.745122
Heightened Def Con from 0.745122 to 0.745122
Heightened Def Con from 0.745122 to 0.745122
Heightened Def Con from 0.745123 to 0.745123
Heightened Def Con from 0.763848 to 0.763848
Heightened Def Con from 0.763849 to 0.763849
Heightened Def Con from 0.763849 to 0.763849
Heightened Def Con from 0.763849 to 0.763849
Heightened Def Con from 0.763849 to 0.763849
Heightened Def Con from 0.763849 to 0.763849
Heightened Def Con from 0.763849 to 0.763849
Heightened Def Con from 0.763849 to 0.763849
Heightened Def Con from 0.763849 to 0.763849
Heightened Def Con from 0.7651 to 0.7651
Heightened Def Con from 0.773836 to 0.773836
Heightened Def Con from 0.773836 to 0.773836
Heightened Def Con from 0.773836 to 0.773836
Heightened Def Con from 0.773836 to 0.773836
Heightened Def Con from 0.773836 to 0.773836
Heightened Def Con from 0.773836 to 0.773836
Heightened Def Con from 0.773836 to 0.773836
Heightened Def Con from 0.773836 to 0.773836
Heightened Def Con from 0.773836 to 0.773836
Heightened Def Con from 0.773836 to 0.773836
Heightened Def Con from 0.773836 to 0.773836
Heightened Def Con from 0.782575 to 0.782575
Heightened Def Con from 0.782575 to 0.782575
Heightened Def Con from 0.782575 to 0.782575
Heightened Def Con from 0.782575 to 0.782575
Heightened Def Con from 0.791311 to 0.791311
Heightened Def Con from 0.791311 to 0.791311
Heightened Def Con from 0.791311 to 0.791311
Heightened Def Con from 0.793806 to 0.793806
Heightened Def Con from 0.793806 to 0.793806
Heightened Def Con from 0.793806 to 0.793806
Heightened Def Con from 0.793806 to 0.793806
Heightened Def Con from 0.793806 to 0.793806
Heightened Def Con from 0.793806 to 0.793806
Heightened Def Con from 0.793806 to 0.793806
Heightened Def Con from 0.793806 to 0.793806
Heightened Def Con from 0.793806 to 0.793806
Heightened Def Con from 0.793806 to 0.793806
Heightened Def Con from 0.793806 to 0.793806
Heightened Def Con from 0.798799 to 0.798799
Heightened Def Con from 0.798799 to 0.798799
Heightened Def Con from 0.798799 to 0.798799
Heightened Def Con from 0.798799 to 0.798799
Heightened Def Con from 0.798799 to 0.798799
Heightened Def Con from 0.798799 to 0.798799
Heightened Def Con from 0.802543 to 0.802543
Heightened Def Con from 0.802543 to 0.802543
Heightened Def Con from 0.802543 to 0.802543
Heightened Def Con from 0.802543 to 0.802543
Heightened Def Con from 0.802544 to 0.802544
Heightened Def Con from 0.802544 to 0.802544
Heightened Def Con from 0.802544 to 0.802544
Heightened Def Con from 0.802544 to 0.802544
Heightened Def Con from 0.802544 to 0.802544
Heightened Def Con from 0.802544 to 0.802544
Heightened Def Con from 0.802544 to 0.802544
Heightened Def Con from 0.802544 to 0.802544
Heightened Def Con from 0.802544 to 0.802544
Heightened Def Con from 0.802544 to 0.802544
Heightened Def Con from 0.802544 to 0.802544
Heightened Def Con from 0.802544 to 0.802544
Heightened Def Con from 0.803791 to 0.803791
Heightened Def Con from 0.803791 to 0.803791
Heightened Def Con from 0.803791 to 0.803791
Heightened Def Con from 0.807533 to 0.807533
Heightened Def Con from 0.807533 to 0.807533
Heightened Def Con from 0.807533 to 0.807533
Heightened Def Con from 0.807533 to 0.807533
Heightened Def Con from 0.807533 to 0.807533
Heightened Def Con from 0.816273 to 0.816273
Heightened Def Con from 0.816273 to 0.816273
Heightened Def Con from 0.816273 to 0.816273
Heightened Def Con from 0.816273 to 0.816273
Heightened Def Con from 0.816273 to 0.816273
Heightened Def Con from 0.816273 to 0.816273
Heightened Def Con from 0.816273 to 0.816273
Heightened Def Con from 0.816273 to 0.816273
Heightened Def Con from 0.816273 to 0.816273
Heightened Def Con from 0.816274 to 0.816274
Heightened Def Con from 0.821266 to 0.821266
Heightened Def Con from 0.821266 to 0.821266
Heightened Def Con from 0.825008 to 0.825008
Heightened Def Con from 0.825008 to 0.825008
Heightened Def Con from 0.825008 to 0.825008
Heightened Def Con from 0.825009 to 0.825009
Heightened Def Con from 0.825009 to 0.825009
Heightened Def Con from 0.825009 to 0.825009
Heightened Def Con from 0.825009 to 0.825009
Heightened Def Con from 0.825009 to 0.825009
Heightened Def Con from 0.825009 to 0.825009
Heightened Def Con from 0.825009 to 0.825009
Heightened Def Con from 0.825009 to 0.825009
Heightened Def Con from 0.825009 to 0.825009
Heightened Def Con from 0.825009 to 0.825009
Heightened Def Con from 0.825009 to 0.825009
Heightened Def Con from 0.831251 to 0.831251
Heightened Def Con from 0.831251 to 0.831251
Heightened Def Con from 0.831251 to 0.831251
Heightened Def Con from 0.831251 to 0.831251
Heightened Def Con from 0.831251 to 0.831251
Heightened Def Con from 0.831251 to 0.831251
Heightened Def Con from 0.831251 to 0.831251
Heightened Def Con from 0.831251 to 0.831251
Heightened Def Con from 0.832499 to 0.832499
Heightened Def Con from 0.832499 to 0.832499
Heightened Def Con from 0.832499 to 0.832499
Heightened Def Con from 0.832499 to 0.832499
Heightened Def Con from 0.832499 to 0.832499
Heightened Def Con from 0.832499 to 0.832499
Heightened Def Con from 0.832499 to 0.832499
Heightened Def Con from 0.832499 to 0.832499
Heightened Def Con from 0.832499 to 0.832499
Heightened Def Con from 0.832499 to 0.832499
Heightened Def Con from 0.832499 to 0.832499
Heightened Def Con from 0.841234 to 0.841234
Heightened Def Con from 0.841234 to 0.841234
Heightened Def Con from 0.841234 to 0.841234
Heightened Def Con from 0.841234 to 0.841234
Heightened Def Con from 0.841234 to 0.841234
Heightened Def Con from 0.841234 to 0.841234
Heightened Def Con from 0.841234 to 0.841234
Heightened Def Con from 0.841234 to 0.841234
Heightened Def Con from 0.841234 to 0.841234
Heightened Def Con from 0.841234 to 0.841234
Heightened Def Con from 0.841234 to 0.841234
Heightened Def Con from 0.841234 to 0.841234
Heightened Def Con from 0.841234 to 0.841234
Heightened Def Con from 0.841234 to 0.841234
Heightened Def Con from 0.841234 to 0.841234
Heightened Def Con from 0.841234 to 0.841234
Heightened Def Con from 0.841234 to 0.841234
Heightened Def Con from 0.841234 to 0.841234
Heightened Def Con from 0.841234 to 0.841234
Heightened Def Con from 0.841234 to 0.841234
Heightened Def Con from 0.841234 to 0.841234
Heightened Def Con from 0.841234 to 0.841234
Heightened Def Con from 0.841234 to 0.841234
Heightened Def Con from 0.841234 to 0.841234
Heightened Def Con from 0.841234 to 0.841234
Heightened Def Con from 0.841234 to 0.841234
Heightened Def Con from 0.841234 to 0.841234
Heightened Def Con from 0.841234 to 0.841234
Heightened Def Con from 0.853711 to 0.853711
Heightened Def Con from 0.856206 to 0.856206
Heightened Def Con from 0.856206 to 0.856206
Heightened Def Con from 0.856206 to 0.856206
Heightened Def Con from 0.856206 to 0.856206
Heightened Def Con from 0.856206 to 0.856206
Heightened Def Con from 0.856206 to 0.856206
Heightened Def Con from 0.856206 to 0.856206
Heightened Def Con from 0.857453 to 0.857453
Heightened Def Con from 0.857453 to 0.857453
Heightened Def Con from 0.857453 to 0.857453
Heightened Def Con from 0.857453 to 0.857453
Heightened Def Con from 0.857453 to 0.857453
Heightened Def Con from 0.857453 to 0.857453
Heightened Def Con from 0.857453 to 0.857453
Heightened Def Con from 0.857453 to 0.857453
Heightened Def Con from 0.857453 to 0.857453
Heightened Def Con from 0.857453 to 0.857453
Heightened Def Con from 0.857453 to 0.857453
Heightened Def Con from 0.857453 to 0.857453
Heightened Def Con from 0.857453 to 0.857453
Heightened Def Con from 0.857453 to 0.857453
Heightened Def Con from 0.857453 to 0.857453
Heightened Def Con from 0.857453 to 0.857453
Heightened Def Con from 0.857453 to 0.857453
Heightened Def Con from 0.857453 to 0.857453
Heightened Def Con from 0.857453 to 0.857453
Heightened Def Con from 0.857453 to 0.857453
Heightened Def Con from 0.857453 to 0.857453
Heightened Def Con from 0.857453 to 0.857453
Heightened Def Con from 0.857453 to 0.857453
Heightened Def Con from 0.857453 to 0.857453
Heightened Def Con from 0.857453 to 0.857453
Heightened Def Con from 0.857453 to 0.857453
Heightened Def Con from 0.857454 to 0.857454
Heightened Def Con from 0.857454 to 0.857454
Heightened Def Con from 0.857454 to 0.857454
Heightened Def Con from 0.857454 to 0.857454
Heightened Def Con from 0.857454 to 0.857454
Heightened Def Con from 0.857454 to 0.857454
Heightened Def Con from 0.857454 to 0.857454
Heightened Def Con from 0.857454 to 0.857454
Heightened Def Con from 0.857454 to 0.857454
Heightened Def Con from 0.857454 to 0.857454
Heightened Def Con from 0.857454 to 0.857454
Heightened Def Con from 0.857454 to 0.857454
Heightened Def Con from 0.857454 to 0.857454
Heightened Def Con from 0.857454 to 0.857454
Heightened Def Con from 0.857454 to 0.857454
Heightened Def Con from 0.866195 to 0.866195
Heightened Def Con from 0.866195 to 0.866195
Heightened Def Con from 0.866195 to 0.866195
Heightened Def Con from 0.866195 to 0.866195
Heightened Def Con from 0.866195 to 0.866195
Heightened Def Con from 0.866195 to 0.866195
Heightened Def Con from 0.866195 to 0.866195
Heightened Def Con from 0.866195 to 0.866195
Heightened Def Con from 0.866195 to 0.866195
Heightened Def Con from 0.866195 to 0.866195
Heightened Def Con from 0.866195 to 0.866195
Heightened Def Con from 0.866195 to 0.866195
Heightened Def Con from 0.866195 to 0.866195
Heightened Def Con from 0.866195 to 0.866195
Heightened Def Con from 0.866195 to 0.866195
Heightened Def Con from 0.866195 to 0.866195
Heightened Def Con from 0.866195 to 0.866195
Heightened Def Con from 0.866195 to 0.866195
Heightened Def Con from 0.866195 to 0.866195
Heightened Def Con from 0.866195 to 0.866195
Heightened Def Con from 0.866195 to 0.866195
Heightened Def Con from 0.882426 to 0.882426
Heightened Def Con from 0.882426 to 0.882426
Heightened Def Con from 0.882426 to 0.882426
Heightened Def Con from 0.882426 to 0.882426
Heightened Def Con from 0.882426 to 0.882426
Heightened Def Con from 0.882426 to 0.882426
Heightened Def Con from 0.894902 to 0.894902
Heightened Def Con from 0.894902 to 0.894902
Heightened Def Con from 0.894902 to 0.894902
Heightened Def Con from 0.894902 to 0.894902
Heightened Def Con from 0.896149 to 0.896149
Heightened Def Con from 0.896149 to 0.896149
Heightened Def Con from 0.896149 to 0.89615
Heightened Def Con from 0.89615 to 0.89615
Heightened Def Con from 0.89615 to 0.89615
Heightened Def Con from 0.916122 to 0.916122
Heightened Def Con from 0.921116 to 0.921116
Heightened Def Con from 0.921116 to 0.921116
Heightened Def Con from 0.924862 to 0.924862
Heightened Def Con from 0.924862 to 0.924862
Heightened Def Con from 0.924862 to 0.924862
Heightened Def Con from 0.924862 to 0.924862
Heightened Def Con from 0.924862 to 0.924862
Heightened Def Con from 0.924862 to 0.924862
Heightened Def Con from 0.924862 to 0.924862
Heightened Def Con from 0.924862 to 0.924862
Heightened Def Con from 0.924862 to 0.924862
Heightened Def Con from 0.924862 to 0.924862
Heightened Def Con from 0.924862 to 0.924862
Heightened Def Con from 0.924862 to 0.924862
Heightened Def Con from 0.924862 to 0.924862
Heightened Def Con from 0.928609 to 0.928609
Heightened Def Con from 0.928609 to 0.928609
Heightened Def Con from 0.941091 to 0.941091
Heightened Def Con from 0.941091 to 0.941091
Heightened Def Con from 0.952328 to 0.952328
Heightened Def Con from 0.952328 to 0.952328
Heightened Def Con from 0.952328 to 0.952328
Heightened Def Con from 0.952328 to 0.952328
Heightened Def Con from 0.952328 to 0.952328
Heightened Def Con from 0.952328 to 0.952328
Heightened Def Con from 0.954827 to 0.954827
Heightened Def Con from 0.954827 to 0.954827
Heightened Def Con from 0.954827 to 0.954827
Heightened Def Con from 0.954827 to 0.954827
Heightened Def Con from 0.954827 to 0.954827
Heightened Def Con from 0.954827 to 0.954827
Heightened Def Con from 0.954827 to 0.954827
Heightened Def Con from 0.954827 to 0.954827
Heightened Def Con from 0.957324 to 0.957324
Heightened Def Con from 0.957324 to 0.957324
Heightened Def Con from 0.957324 to 0.957324
Heightened Def Con from 0.957324 to 0.957324
Heightened Def Con from 0.957324 to 0.957324
Heightened Def Con from 0.957324 to 0.957324
Heightened Def Con from 0.957324 to 0.957324
Heightened Def Con from 0.957324 to 0.957324
Heightened Def Con from 0.957324 to 0.957324
Heightened Def Con from 0.957324 to 0.957324
Heightened Def Con from 0.957324 to 0.957324
Heightened Def Con from 0.957324 to 0.957324
Heightened Def Con from 0.957324 to 0.957324
Heightened Def Con from 0.957324 to 0.957324
Heightened Def Con from 0.957324 to 0.957324
Heightened Def Con from 0.957324 to 0.957324
Heightened Def Con from 0.957324 to 0.957324
Heightened Def Con from 0.96856 to 0.96856
Heightened Def Con from 0.96856 to 0.96856
Heightened Def Con from 0.96856 to 0.96856
Heightened Def Con from 0.96856 to 0.96856
Heightened Def Con from 0.96856 to 0.96856
Heightened Def Con from 0.96856 to 0.96856
Heightened Def Con from 0.96856 to 0.96856
Heightened Def Con from 0.96856 to 0.96856
Heightened Def Con from 0.96856 to 0.96856
Heightened Def Con from 0.974798 to 0.974798
Heightened Def Con from 0.974798 to 0.974798
Heightened Def Con from 0.974798 to 0.974798
Heightened Def Con from 0.979793 to 0.979793
Heightened Def Con from 0.979793 to 0.979793
Heightened Def Con from 0.979793 to 0.979793
Heightened Def Con from 0.979793 to 0.979793
Heightened Def Con from 0.979793 to 0.979793
Heightened Def Con from 0.979793 to 0.979793
Heightened Def Con from 0.979793 to 0.979793
Heightened Def Con from 0.981041 to 0.981041
Heightened Def Con from 0.981041 to 0.981041
Heightened Def Con from 0.981041 to 0.981041
Heightened Def Con from 0.981041 to 0.981041
Heightened Def Con from 0.981041 to 0.981041
Heightened Def Con from 0.981041 to 0.981041
Heightened Def Con from 0.981041 to 0.981041
Heightened Def Con from 0.981041 to 0.981041
Heightened Def Con from 0.983536 to 0.983536
Heightened Def Con from 0.983536 to 0.983537
Heightened Def Con from 0.983537 to 0.983537
Heightened Def Con from 0.983537 to 0.983537
Heightened Def Con from 0.983537 to 0.983537
Heightened Def Con from 0.983537 to 0.983537
Heightened Def Con from 0.983537 to 0.983537
Heightened Def Con from 0.992278 to 0.992278
Heightened Def Con from 0.992278 to 0.992278
Heightened Def Con from 0.992278 to 0.992278
Heightened Def Con from 0.992278 to 0.992278
Heightened Def Con from 0.992278 to 0.992278
Heightened Def Con from 0.992278 to 0.992278
Heightened Def Con from 0.992278 to 0.992278
Heightened Def Con from 0.992278 to 0.992278
Heightened Def Con from 0.992278 to 0.992278
Heightened Def Con from 0.992278 to 0.992278
Heightened Def Con from 0.992278 to 0.992278
Heightened Def Con from 0.992278 to 0.992278
Heightened Def Con from 0.992278 to 0.992278
Heightened Def Con from 0.992278 to 0.992278
Heightened Def Con from 0.992278 to 0.992278
Heightened Def Con from 0.993526 to 0.993526
.step r=1100
.step r=2100
