Circuit: * C:\users\raghuttam\Documents\LTspiceXVII\basic-electronic-circuits\Hartley_Oscillator_Transistor.asc

Direct Newton iteration for .op point succeeded.

Date: Fri Aug 27 18:29:54 2021
Total elapsed time: 0.210 seconds.

tnom = 27
temp = 27
method = modified trap
totiter = 59636
traniter = 59631
tranpoints = 20369
accept = 14041
rejected = 6328
matrix size = 10
fillins = 4
solver = Normal
Matrix Compiler1: 818 bytes object code size  0.2/0.2/[0.1]
Matrix Compiler2: 890 bytes object code size  0.2/0.2/[0.2]

