Circuit: * C:\users\raghuttam\Documents\LTspiceXVII\basic-electronic-circuits\Multiplexar_Comp_CMOS.asc

Direct Newton iteration for .op point succeeded.
Changing Tseed to 1e-010
Changing Tseed to 1e-012
Changing Tseed to 1e-009
Changing Tseed to 1e-013
Heightened Def Con from 4 to 4
Heightened Def Con from 4 to 4
Heightened Def Con from 4 +to 4
Heightened Def Con from 4 +to 4
Heightened Def Con from 4 +to 4
Heightened Def Con from 4 ++to 4
Heightened Def Con from 4 ++to 4
Heightened Def Con from 4 ++to 4
Heightened Def Con from 4 ++to 4

Date: Tue Oct 26 10:52:45 2021
Total elapsed time: 0.469 seconds.

tnom = 27
temp = 27
method = modified trap
totiter = 6134
traniter = 6123
tranpoints = 1568
accept = 1407
rejected = 177
matrix size = 13
fillins = 0
solver = Normal
Matrix Compiler1: 800 bytes object code size  1.4/1.1/[0.5]
Matrix Compiler2: 1.26 KB object code size  1.2/1.1/[0.8]

