Circuit: * C:\users\raghuttam\My Documents\LTspiceXVII\basic-electronic-circuits\nmos_inverter.asc

WARNING: Node N005 is floating.


Date: Fri Jul 23 11:16:48 2021
Total elapsed time: 0.150 seconds.

tnom = 27
temp = 27
method = trap
totiter = 675
traniter = 0
tranpoints = 0
accept = 0
rejected = 0
matrix size = 7
fillins = 0
solver = Normal
Matrix Compiler1: 250 bytes object code size  0.1/0.1/[0.1]
Matrix Compiler2: 515 bytes object code size  0.1/0.1/[0.1]

