Circuit: * C:\users\raghuttam\My Documents\LTspiceXVII\basic-electronic-circuits\npn_IV.asc

.step v1=0.5
.step v1=0.6
.step v1=0.7
.step v1=0.8
.step v1=0.9
.step v1=1

Date: Mon Jul 12 12:21:50 2021
Total elapsed time: 0.141 seconds.

tnom = 27
temp = 27
method = trap
totiter = 698
traniter = 0
tranpoints = 0
accept = 0
rejected = 0
matrix size = 6
fillins = 0
solver = Normal
Matrix Compiler1: 146 bytes object code size  0.1/0.0/[0.0]
Matrix Compiler2:      32 opcodes  0.0/[0.0]/0.1

