Circuit: * C:\users\raghuttam\My Documents\LTspiceXVII\Basic_electronics_circuits\npn_IV.asc


Date: Sat Jul 10 11:43:55 2021
Total elapsed time: 0.052 seconds.

tnom = 27
temp = 27
method = trap
totiter = 131
traniter = 0
tranpoints = 0
accept = 0
rejected = 0
matrix size = 6
fillins = 0
solver = Normal
Matrix Compiler1: 146 bytes object code size  0.1/0.1/[0.0]
Matrix Compiler2: 380 bytes object code size  0.1/0.1/[0.0]

