Circuit: * C:\users\raghuttam\My Documents\LTspiceXVII\basic-electronic-circuits\Opamp_Math_applications.asc

Limiting rise time of source vd to 5e-005
Limiting fall time of source vd to 5e-005
Limiting rise time of source vc to 5e-005
Limiting fall time of source vc to 5e-005
Direct Newton iteration for .op point succeeded.

Date: Mon Jul 12 10:35:54 2021
Total elapsed time: 0.242 seconds.

tnom = 27
temp = 27
method = modified trap
totiter = 9701
traniter = 9670
tranpoints = 3315
accept = 2665
rejected = 650
matrix size = 109
fillins = 92
solver = Normal
Thread vector: 10.4/4.8[2] 2.6/7.1[1] 1.8/1.7[1] 1.2/1.4[1]  2592/500
Matrix Compiler1: 9.04 KB object code size  2.0/1.0/[0.7]
Matrix Compiler2: 10.49 KB object code size  0.9/1.4/[0.9]

