Circuit: * C:\users\raghuttam\Documents\LTspiceXVII\basic-electronic-circuits\Opamp_Math_applications.asc

Limiting rise time of source vd to 5e-005
Limiting fall time of source vd to 5e-005
Limiting rise time of source vc to 5e-005
Limiting fall time of source vc to 5e-005
Direct Newton iteration for .op point succeeded.

Date: Mon Sep 06 09:29:52 2021
Total elapsed time: 0.448 seconds.

tnom = 27
temp = 27
method = modified trap
totiter = 9698
traniter = 9667
tranpoints = 3269
accept = 2644
rejected = 625
matrix size = 109
fillins = 92
solver = Normal
Thread vector: 47.5/32.1[2] 18.9/15.9[2] 11.7/14.9[1] 3.0/10.6[1]  2592/500
Matrix Compiler1: 9.04 KB object code size  14.9/7.7/[4.4]
Matrix Compiler2: 10.49 KB object code size  7.0/8.4/[3.7]

