Circuit: * C:\users\raghuttam\Documents\LTspiceXVII\basic-electronic-circuits\pnp_IV.asc

Error on line 2 : v1 n003 0 v
	 Unknown parameter "v"
Error on line 3 : vcc n002 0 v
	 Unknown parameter "v"
Vcc: Missing value, assumed 0V @ DC
V1: Missing value, assumed 0V @ DC
.dc sweep increment has wrong sign -- fixing...
.dc sweep increment has wrong sign -- fixing...
.OP point found by inspection.
.step v1=0
.step v1=-0.1
.step v1=-0.2
.step v1=-0.3
.step v1=-0.4
.step v1=-0.5
.step v1=-0.6
.step v1=-0.7
.step v1=-0.8
.step v1=-0.9
.step v1=-1

Date: Thu Aug 26 10:13:54 2021
Total elapsed time: 0.370 seconds.

tnom = 27
temp = 27
method = trap
totiter = 1206
traniter = 0
tranpoints = 0
accept = 0
rejected = 0
matrix size = 6
fillins = 0
solver = Normal
Matrix Compiler1: 146 bytes object code size  0.5/0.5/[0.5]
Matrix Compiler2: off  [0.5]/0.6/0.5

