Circuit: * C:\users\raghuttam\Documents\LTspiceXVII\basic-electronic-circuits\Potential_divider.asc

Direct Newton iteration for .op point succeeded.

Date: Thu Aug 26 10:14:51 2021
Total elapsed time: 0.721 seconds.

tnom = 27
temp = 27
method = trap
totiter = 3
traniter = 0
tranpoints = 0
accept = 0
rejected = 0
matrix size = 4
fillins = 0
solver = Normal
Matrix Compiler1: 82 bytes object code size
Matrix Compiler2: 248 bytes object code size
