Circuit: * C:\users\raghuttam\My Documents\LTspiceXVII\basic-electronic-circuits\RC_PhaseShift_Oscillator.asc

Direct Newton iteration for .op point succeeded.

Date: Thu Jul 15 13:02:17 2021
Total elapsed time: 0.319 seconds.

tnom = 27
temp = 27
method = modified trap
totiter = 20575
traniter = 20565
tranpoints = 6698
accept = 4828
rejected = 1870
matrix size = 70
fillins = 78
solver = Normal
Matrix Compiler1: 7.02 KB object code size  1.3/0.7/[0.3]
Matrix Compiler2: 7.09 KB object code size  0.5/0.8/[0.4]

