Circuit: * C:\users\raghuttam\My Documents\LTspiceXVII\basic-electronic-circuits\RC_PhaseShift_Oscillator.asc

Direct Newton iteration for .op point succeeded.

Date: Wed Jul 14 14:34:11 2021
Total elapsed time: 0.175 seconds.

tnom = 27
temp = 27
method = modified trap
totiter = 19377
traniter = 19367
tranpoints = 5957
accept = 4209
rejected = 1748
matrix size = 38
fillins = 33
solver = Normal
Matrix Compiler1: 3.28 KB object code size  0.6/0.3/[0.2]
Matrix Compiler2: 3.62 KB object code size  0.3/0.4/[0.2]

