Circuit: * C:\users\raghuttam\Documents\LTspiceXVII\basic-electronic-circuits\RC_PhaseShift_Oscillator.asc

Direct Newton iteration for .op point succeeded.
.step r=200
.step r=400
.step r=600
.step r=800
.step r=1000
.step r=1200
.step r=1400
.step r=1500

Date: Thu Aug 12 11:05:46 2021
Total elapsed time: 1.883 seconds.

tnom = 27
temp = 27
method = modified trap
totiter = 27781
traniter = 27771
tranpoints = 8830
accept = 6069
rejected = 2761
matrix size = 70
fillins = 77
solver = Normal
Matrix Compiler1: 6.96 KB object code size  1.8/0.9/[0.5]
Matrix Compiler2: 7.08 KB object code size  0.8/1.0/[0.5]

