Circuit: * C:\users\raghuttam\Documents\LTspiceXVII\basic-electronic-circuits\Rectifier.asc

.OP point found by inspection.
.step c=1e-007
.step c=2e-007
.step c=3e-007
.step c=4e-007
.step c=5e-007
.step c=6e-007
.step c=7e-007
.step c=8e-007
.step c=9e-007
.step c=1e-006

Date: Thu Aug 26 10:16:00 2021
Total elapsed time: 0.645 seconds.

tnom = 27
temp = 27
method = modified trap
totiter = 2448
traniter = 2448
tranpoints = 1091
accept = 1081
rejected = 10
matrix size = 3
fillins = 0
solver = Normal
Matrix Compiler1:       3 opcodes  0.2/[0.1]/0.2
Matrix Compiler2: 175 bytes object code size  0.2/0.2/[0.1]

