Circuit: * C:\users\raghuttam\My Documents\LTspiceXVII\Exp\Rectifier.asc

.OP point found by inspection.
.step c=1e-007
.step c=2e-007
.step c=3e-007
.step c=4e-007
.step c=5e-007
.step c=6e-007
.step c=7e-007
.step c=8e-007
.step c=9e-007
.step c=1e-006

Date: Fri Jul 09 16:42:56 2021
Total elapsed time: 0.291 seconds.

tnom = 27
temp = 27
method = modified trap
totiter = 2448
traniter = 2448
tranpoints = 1091
accept = 1081
rejected = 10
matrix size = 3
fillins = 0
solver = Normal
Matrix Compiler1: off  0.1/[0.0]/0.0
Matrix Compiler2: 175 bytes object code size  0.1/0.1/[0.1]

