Circuit: * C:\users\raghuttam\Documents\LTspiceXVII\basic-electronic-circuits\RLC_trans.asc

.OP point found by inspection.
.step r=50
.step r=100
.step r=150
.step r=200
.step r=250
.step r=300
.step r=350
.step r=400
.step r=450
.step r=500

Date: Mon Aug 02 15:57:27 2021
Total elapsed time: 0.258 seconds.

tnom = 27
temp = 27
method = modified trap
totiter = 2120
traniter = 2120
tranpoints = 1061
accept = 1059
rejected = 2
matrix size = 4
fillins = 0
solver = Normal
Matrix Compiler1: 100 bytes object code size  0.1/0.1/[0.1]
Matrix Compiler2: 248 bytes object code size  0.1/0.1/[0.1]

