Circuit: * C:\users\raghuttam\Documents\LTspiceXVII\basic-electronic-circuits\schmitt_opamp.asc

Direct Newton iteration for .op point succeeded.

Date: Thu Aug 26 10:17:24 2021
Total elapsed time: 0.316 seconds.

tnom = 27
temp = 27
method = modified trap
totiter = 5477
traniter = 5466
tranpoints = 2077
accept = 1765
rejected = 312
matrix size = 38
fillins = 33
solver = Normal
Matrix Compiler1: 3.14 KB object code size  3.3/2.1/[0.9]
Matrix Compiler2: 3.62 KB object code size  1.9/3.0/[1.3]

