Circuit: * C:\users\raghuttam\My Documents\LTspiceXVII\basic-electronic-circuits\schmitt_opamp.asc

Direct Newton iteration for .op point succeeded.

Date: Wed Jul 14 14:31:55 2021
Total elapsed time: 0.174 seconds.

tnom = 27
temp = 27
method = modified trap
totiter = 5477
traniter = 5466
tranpoints = 2077
accept = 1765
rejected = 312
matrix size = 38
fillins = 33
solver = Normal
Matrix Compiler1: 3.14 KB object code size  0.8/0.5/[0.3]
Matrix Compiler2: 3.62 KB object code size  0.4/1.0/[0.3]

