Circuit: * C:\users\raghuttam\Documents\LTspiceXVII\basic-electronic-circuits\Schmitt_Trigger.asc

Direct Newton iteration for .op point succeeded.

Date: Wed Aug 25 22:01:01 2021
Total elapsed time: 0.092 seconds.

tnom = 27
temp = 27
method = modified trap
totiter = 4540
traniter = 4519
tranpoints = 1820
accept = 1576
rejected = 244
matrix size = 15
fillins = 8
solver = Normal
Matrix Compiler1: 1.34 KB object code size  0.3/0.2/[0.2]
Matrix Compiler2: off  [0.2]/0.2/0.2

