Circuit: * C:\users\raghuttam\My Documents\LTspiceXVII\basic-electronic-circuits\Schmitt_Trigger.asc

Direct Newton iteration for .op point succeeded.

Date: Mon Jul 12 10:39:26 2021
Total elapsed time: 0.166 seconds.

tnom = 27
temp = 27
method = modified trap
totiter = 4826
traniter = 4798
tranpoints = 1901
accept = 1631
rejected = 270
matrix size = 15
fillins = 8
solver = Normal
Matrix Compiler1: 1.34 KB object code size  0.4/0.2/[0.2]
Matrix Compiler2: off  [0.2]/0.3/0.2

