Circuit: * C:\users\raghuttam\Documents\LTspiceXVII\basic-electronic-circuits\Shunt_Regulator.asc

.OP point found by inspection.

Date: Thu Aug 26 10:18:01 2021
Total elapsed time: 0.206 seconds.

tnom = 27
temp = 27
method = trap
totiter = 51
traniter = 0
tranpoints = 0
accept = 0
rejected = 0
matrix size = 4
fillins = 0
solver = Normal
Matrix Compiler1: 100 bytes object code size
Matrix Compiler2: 248 bytes object code size
