Circuit: * C:\users\raghuttam\My Documents\LTspiceXVII\Exp\Shunt_Regulator.asc

.OP point found by inspection.

Date: Fri Jul 09 16:24:39 2021
Total elapsed time: 0.141 seconds.

tnom = 27
temp = 27
method = trap
totiter = 51
traniter = 0
tranpoints = 0
accept = 0
rejected = 0
matrix size = 4
fillins = 0
solver = Normal
Matrix Compiler1: 100 bytes object code size
Matrix Compiler2: 248 bytes object code size
