Circuit: * C:\users\raghuttam\Documents\LTspiceXVII\basic-electronic-circuits\transmission_AND.asc

WARNING: Node N007 is floating.

Direct Newton iteration failed to find .op point.  (Use ".option noopiter" to skip.)
Starting Gmin stepping
Gmin = 10
Gmin = 1.07374
Gmin = 0.115292
Gmin = 0.0123794
Gmin = 0.00132923
Gmin = 0.000142725
Gmin = 1.5325e-005
Gmin = 1.6455e-006
Gmin = 1.76685e-007
Gmin = 1.89714e-008
Gmin = 2.03704e-009
Gmin = 2.18725e-010
Gmin = 2.34854e-011
Gmin = 2.52173e-012
Gmin = 2.70769e-013
Gmin = 0
Gmin stepping succeeded in finding the operating point.


Date: Wed Oct 27 12:26:23 2021
Total elapsed time: 0.307 seconds.

tnom = 27
temp = 27
method = modified trap
totiter = 3754
traniter = 3404
tranpoints = 1443
accept = 1406
rejected = 37
matrix size = 21
fillins = 6
solver = Normal
Matrix Compiler1: 1.43 KB object code size  0.5/0.3/[0.2]
Matrix Compiler2: off  [0.4]/0.5/0.5

