Circuit: * C:\users\raghuttam\My Documents\LTspiceXVII\basic-electronic-circuits\XOR_Diode.asc

Direct Newton iteration for .op point succeeded.

Date: Wed Jul 14 14:35:07 2021
Total elapsed time: 0.229 seconds.

tnom = 27
temp = 27
method = modified trap
totiter = 3335
traniter = 3294
tranpoints = 1492
accept = 1452
rejected = 40
matrix size = 12
fillins = 0
solver = Normal
Matrix Compiler1: 526 bytes object code size  0.3/0.3/[0.2]
Matrix Compiler2: off  [0.3]/0.5/0.3

