Circuit: * C:\users\raghuttam\Documents\LTspiceXVII\basic-electronic-circuits\XOR_Diode.asc

Direct Newton iteration for .op point succeeded.

Date: Wed Oct 27 13:28:23 2021
Total elapsed time: 0.128 seconds.

tnom = 27
temp = 27
method = modified trap
totiter = 3622
traniter = 3581
tranpoints = 1536
accept = 1487
rejected = 49
matrix size = 16
fillins = 0
solver = Normal
Matrix Compiler1: 842 bytes object code size  0.2/0.2/[0.1]
Matrix Compiler2: off  [0.2]/0.3/0.2

