Circuit: * C:\users\raghuttam\Documents\LTspiceXVII\basic-electronic-circuits\Zener.asc


Date: Thu Aug 26 10:18:32 2021
Total elapsed time: 0.270 seconds.

tnom = 27
temp = 27
method = trap
totiter = 1031
traniter = 0
tranpoints = 0
accept = 0
rejected = 0
matrix size = 4
fillins = 0
solver = Normal
Matrix Compiler1: 118 bytes object code size  0.5/0.5/[0.4]
Matrix Compiler2: 242 bytes object code size  0.5/0.5/[0.5]

