Circuit: * C:\users\raghuttam\My Documents\LTspiceXVII\Exp\Zener.asc


Date: Fri Jul 09 16:26:42 2021
Total elapsed time: 0.128 seconds.

tnom = 27
temp = 27
method = trap
totiter = 1031
traniter = 0
tranpoints = 0
accept = 0
rejected = 0
matrix size = 4
fillins = 0
solver = Normal
Matrix Compiler1: 118 bytes object code size  0.1/0.1/[0.1]
Matrix Compiler2: 242 bytes object code size  0.1/0.1/[0.1]

